<?xml version="1.0" encoding="UTF-8"?>

<configuration xmlns:xsi="http://www.w3.org/2001/XMLSchema-instance" xsi:noNamespaceSchemaLocation="http://sumo.dlr.de/xsd/sumoConfiguration.xsd">

    <input>
        <net-file value="rand.net.xml"/>
        <route-files value="rand.rou.xml,bus_types.add.xml"/>
    </input>

    <time>
        <begin value="0"/>
    </time>

    <gui_only>
        <gui-settings-file value="viewsettings.xml"/>
    </gui_only>

    <report>
        <verbose value="true"/>
        <no-step-log value="true"/>
    </report>

</configuration>
