<?xml version="1.0" encoding="UTF-8"?>

<!-- generated on Sat Nov  7 13:25:23 2020 by Eclipse SUMO netgenerate Version v1_7_0+0731-f5102a459b
<configuration xmlns:xsi="http://www.w3.org/2001/XMLSchema-instance" xsi:noNamespaceSchemaLocation="http://sumo.dlr.de/xsd/netgenerateConfiguration.xsd">

    <random_network>
        <rand value="true"/>
        <rand.iterations value="30"/>
    </random_network>

    <output>
        <output-file value="rand.net.xml"/>
    </output>

    <tls_building>
        <tls.guess value="true"/>
        <tls.guess.threshold value="45"/>
    </tls_building>

    <pedestrian>
        <sidewalks.guess value="true"/>
        <crossings.guess value="true"/>
    </pedestrian>

    <random_number>
        <seed value="1604751923"/>
    </random_number>

</configuration>
-->

<net version="1.6" junctionCornerDetail="5" walkingareas="true" limitTurnSpeed="5.50" xmlns:xsi="http://www.w3.org/2001/XMLSchema-instance" xsi:noNamespaceSchemaLocation="http://sumo.dlr.de/xsd/net_file.xsd">

    <location netOffset="773.78,792.76" convBoundary="0.00,0.00,1091.62,1136.17" origBoundary="-773.78,-792.76,317.83,343.41" projParameter="!"/>

    <edge id=":1_0" function="internal">
        <lane id=":1_0_0" index="0" disallow="pedestrian" speed="7.41" length="8.29" shape="778.25,800.55 775.84,798.50 773.25,797.83 770.88,798.43"/>
    </edge>
    <edge id=":1_1" function="internal">
        <lane id=":1_1_0" index="0" disallow="pedestrian" speed="13.89" length="17.88" shape="778.25,800.55 774.77,796.59 772.03,794.17 768.85,792.35 764.03,790.16"/>
    </edge>
    <edge id=":1_2" function="internal">
        <lane id=":1_2_0" index="0" disallow="pedestrian" speed="7.81" length="6.05" shape="778.25,800.55 775.79,796.60 775.66,795.21"/>
    </edge>
    <edge id=":1_3" function="internal">
        <lane id=":1_3_0" index="0" disallow="pedestrian" speed="3.65" length="2.34" shape="778.25,800.55 778.09,799.12 778.44,798.30"/>
    </edge>
    <edge id=":1_16" function="internal">
        <lane id=":1_16_0" index="0" disallow="pedestrian" speed="7.41" length="4.08" shape="770.88,798.43 770.46,798.54 767.48,800.64"/>
    </edge>
    <edge id=":1_17" function="internal">
        <lane id=":1_17_0" index="0" disallow="pedestrian" speed="7.81" length="10.22" shape="775.66,795.21 775.45,793.13 777.24,790.14 781.16,787.63"/>
    </edge>
    <edge id=":1_18" function="internal">
        <lane id=":1_18_0" index="0" disallow="pedestrian" speed="3.65" length="2.34" shape="778.44,798.30 779.31,798.09 780.70,798.49"/>
    </edge>
    <edge id=":1_4" function="internal">
        <lane id=":1_4_0" index="0" disallow="pedestrian" speed="6.27" length="5.74" shape="782.49,790.54 780.08,792.09 778.98,793.93 779.05,794.65"/>
    </edge>
    <edge id=":1_5" function="internal">
        <lane id=":1_5_0" index="0" disallow="pedestrian" speed="13.89" length="18.22" shape="782.49,790.54 777.61,792.85 774.41,794.72 771.49,797.03 767.48,800.64"/>
    </edge>
    <edge id=":1_6" function="internal">
        <lane id=":1_6_0" index="0" disallow="pedestrian" speed="13.52" length="7.30" shape="782.49,790.54 778.07,792.01 775.44,792.25"/>
    </edge>
    <edge id=":1_7" function="internal">
        <lane id=":1_7_0" index="0" disallow="pedestrian" speed="3.65" length="2.34" shape="782.49,790.54 781.06,790.31 780.37,789.75"/>
    </edge>
    <edge id=":1_19" function="internal">
        <lane id=":1_19_0" index="0" disallow="pedestrian" speed="6.27" length="4.28" shape="779.05,794.65 779.18,796.06 780.70,798.49"/>
    </edge>
    <edge id=":1_20" function="internal">
        <lane id=":1_20_0" index="0" disallow="pedestrian" speed="13.52" length="11.73" shape="775.44,792.25 773.53,792.43 768.85,791.82 764.03,790.16"/>
    </edge>
    <edge id=":1_21" function="internal">
        <lane id=":1_21_0" index="0" disallow="pedestrian" speed="3.65" length="2.34" shape="780.37,789.75 780.40,788.85 781.16,787.63"/>
    </edge>
    <edge id=":1_8" function="internal">
        <lane id=":1_8_0" index="0" disallow="pedestrian" speed="12.54" length="12.36" shape="765.34,787.24 769.49,788.67 773.51,789.22 777.40,788.87"/>
    </edge>
    <edge id=":1_9" function="internal">
        <lane id=":1_9_0" index="0" disallow="pedestrian" speed="13.89" length="19.34" shape="765.34,787.24 770.54,789.61 773.98,791.59 776.94,794.21 780.70,798.49"/>
    </edge>
    <edge id=":1_10" function="internal">
        <lane id=":1_10_0" index="0" disallow="pedestrian" speed="7.78" length="6.96" shape="765.34,787.24 769.72,789.97 770.62,791.52"/>
    </edge>
    <edge id=":1_11" function="internal">
        <lane id=":1_11_0" index="0" disallow="pedestrian" speed="3.65" length="2.34" shape="765.34,787.24 766.11,788.46 766.15,789.35"/>
    </edge>
    <edge id=":1_22" function="internal">
        <lane id=":1_22_0" index="0" disallow="pedestrian" speed="12.54" length="3.96" shape="777.40,788.87 781.16,787.63"/>
    </edge>
    <edge id=":1_23" function="internal">
        <lane id=":1_23_0" index="0" disallow="pedestrian" speed="7.78" length="10.65" shape="770.62,791.52 771.54,793.12 770.79,796.67 767.48,800.64"/>
    </edge>
    <edge id=":1_24" function="internal">
        <lane id=":1_24_0" index="0" disallow="pedestrian" speed="3.65" length="2.34" shape="766.15,789.35 765.45,789.92 764.03,790.16"/>
    </edge>
    <edge id=":1_12" function="internal">
        <lane id=":1_12_0" index="0" disallow="pedestrian" speed="6.20" length="6.41" shape="765.33,798.27 767.34,795.87 767.79,793.72 767.24,792.78"/>
    </edge>
    <edge id=":1_13" function="internal">
        <lane id=":1_13_0" index="0" disallow="pedestrian" speed="13.89" length="19.21" shape="765.33,798.27 769.56,794.46 772.64,792.03 776.02,790.06 781.16,787.63"/>
    </edge>
    <edge id=":1_14" function="internal">
        <lane id=":1_14_0" index="0" disallow="pedestrian" speed="8.75" length="7.32" shape="765.33,798.27 769.52,795.36 771.67,794.85"/>
    </edge>
    <edge id=":1_15" function="internal">
        <lane id=":1_15_0" index="0" disallow="pedestrian" speed="3.65" length="2.34" shape="765.33,798.27 766.76,798.06 767.59,798.38"/>
    </edge>
    <edge id=":1_25" function="internal">
        <lane id=":1_25_0" index="0" disallow="pedestrian" speed="6.20" length="4.24" shape="767.24,792.78 766.69,791.81 764.03,790.16"/>
    </edge>
    <edge id=":1_26" function="internal">
        <lane id=":1_26_0" index="0" disallow="pedestrian" speed="8.75" length="10.35" shape="771.67,794.85 773.48,794.42 777.20,795.47 780.70,798.49"/>
    </edge>
    <edge id=":1_27" function="internal">
        <lane id=":1_27_0" index="0" disallow="pedestrian" speed="3.65" length="2.34" shape="767.59,798.38 767.83,799.24 767.48,800.64"/>
    </edge>
    <edge id=":1_c0" function="crossing" crossingEdges="7 -7">
        <lane id=":1_c0_0" index="0" allow="pedestrian" speed="1.00" length="6.40" width="4.00" shape="780.64,795.93 775.74,800.05"/>
    </edge>
    <edge id=":1_c1" function="crossing" crossingEdges="3 -3">
        <lane id=":1_c1_0" index="0" allow="pedestrian" speed="1.00" length="6.40" width="4.00" shape="778.67,787.00 781.33,792.83"/>
    </edge>
    <edge id=":1_c2" function="crossing" crossingEdges="5 -5">
        <lane id=":1_c2_0" index="0" allow="pedestrian" speed="1.00" length="6.40" width="4.00" shape="765.21,792.44 767.82,786.59"/>
    </edge>
    <edge id=":1_c3" function="crossing" crossingEdges="9 -9">
        <lane id=":1_c3_0" index="0" allow="pedestrian" speed="1.00" length="6.40" width="4.00" shape="770.04,800.48 765.74,795.74"/>
    </edge>
    <edge id=":1_w0" function="walkingarea">
        <lane id=":1_w0_0" index="0" allow="pedestrian" speed="1.00" length="5.11" width="4.00" shape="768.56,801.83 769.90,803.31 775.50,802.87 777.03,801.58 775.80,800.42 774.51,799.73 773.13,799.53 771.68,799.81 770.16,800.58"/>
    </edge>
    <edge id=":1_w1" function="walkingarea">
        <lane id=":1_w1_0" index="0" allow="pedestrian" speed="1.00" length="3.35" width="4.00" shape="781.92,797.46 783.45,796.17 783.98,793.81 783.15,791.99 781.95,792.68 781.14,793.46 780.74,794.32 780.73,795.28 781.13,796.33"/>
    </edge>
    <edge id=":1_w2" function="walkingarea">
        <lane id=":1_w2_0" index="0" allow="pedestrian" speed="1.00" length="8.97" width="4.00" shape="780.49,786.17 779.66,784.35 766.80,783.95 765.99,785.78 768.55,786.75 771.06,787.36 773.50,787.61 775.89,787.50 778.22,787.02"/>
    </edge>
    <edge id=":1_w3" function="walkingarea">
        <lane id=":1_w3_0" index="0" allow="pedestrian" speed="1.00" length="3.36" width="4.00" shape="763.38,791.62 762.57,793.45 762.91,795.61 764.26,797.09 765.27,795.99 765.82,794.97 765.91,794.02 765.53,793.14 764.69,792.35"/>
    </edge>
    <edge id=":103_0" function="internal">
        <lane id=":103_0_0" index="0" disallow="pedestrian" speed="13.89" length="20.36" shape="1089.03,115.93 1091.70,121.19 1092.57,125.23 1092.19,129.51 1091.07,135.44"/>
    </edge>
    <edge id=":103_1" function="internal">
        <lane id=":103_1_0" index="0" disallow="pedestrian" speed="8.68" length="5.81" shape="1089.03,115.93 1090.38,119.90 1090.03,121.47"/>
    </edge>
    <edge id=":103_2" function="internal">
        <lane id=":103_2_0" index="0" disallow="pedestrian" speed="3.65" length="2.45" shape="1089.03,115.93 1088.95,117.37 1088.47,118.12 1088.35,118.13"/>
    </edge>
    <edge id=":103_9" function="internal">
        <lane id=":103_9_0" index="0" disallow="pedestrian" speed="8.68" length="12.49" shape="1090.03,121.47 1089.57,123.53 1086.59,126.82 1081.44,129.78"/>
    </edge>
    <edge id=":103_10" function="internal">
        <lane id=":103_10_0" index="0" disallow="pedestrian" speed="3.65" length="2.22" shape="1088.35,118.13 1087.57,118.18 1086.28,117.55"/>
    </edge>
    <edge id=":103_3" function="internal">
        <lane id=":103_3_0" index="0" disallow="pedestrian" speed="7.34" length="12.77" shape="1080.13,126.86 1083.96,124.74 1086.27,122.47 1087.04,120.08 1086.28,117.55"/>
    </edge>
    <edge id=":103_4" function="internal">
        <lane id=":103_4_0" index="0" disallow="pedestrian" speed="7.83" length="19.78" shape="1080.13,126.86 1085.91,125.11 1089.67,125.96 1091.38,129.40 1091.07,135.44"/>
    </edge>
    <edge id=":103_5" function="internal">
        <lane id=":103_5_0" index="0" disallow="pedestrian" speed="3.65" length="4.67" shape="1080.13,126.86 1081.55,127.10 1082.24,127.67 1082.21,128.56 1081.44,129.78"/>
    </edge>
    <edge id=":103_6" function="internal">
        <lane id=":103_6_0" index="0" disallow="pedestrian" speed="6.18" length="7.58" shape="1087.92,134.86 1088.11,131.29 1087.09,129.25 1085.41,128.87"/>
    </edge>
    <edge id=":103_7" function="internal">
        <lane id=":103_7_0" index="0" disallow="pedestrian" speed="13.89" length="18.05" shape="1087.92,134.86 1088.94,129.60 1089.33,125.81 1088.61,122.21 1086.28,117.55"/>
    </edge>
    <edge id=":103_8" function="internal">
        <lane id=":103_8_0" index="0" disallow="pedestrian" speed="3.65" length="2.34" shape="1087.92,134.86 1088.92,133.83 1089.78,133.58"/>
    </edge>
    <edge id=":103_11" function="internal">
        <lane id=":103_11_0" index="0" disallow="pedestrian" speed="6.18" length="4.14" shape="1085.41,128.87 1084.87,128.75 1081.44,129.78"/>
    </edge>
    <edge id=":103_12" function="internal">
        <lane id=":103_12_0" index="0" disallow="pedestrian" speed="3.65" length="2.34" shape="1089.78,133.58 1090.49,134.11 1091.07,135.44"/>
    </edge>
    <edge id=":103_c0" function="crossing" crossingEdges="412 -412">
        <lane id=":103_c0_0" index="0" allow="pedestrian" speed="1.00" length="6.40" width="4.00" shape="1085.91,120.09 1091.43,116.84"/>
    </edge>
    <edge id=":103_c1" function="crossing" crossingEdges="-104 104">
        <lane id=":103_c1_0" index="0" allow="pedestrian" speed="1.00" length="6.40" width="4.00" shape="1083.92,130.43 1081.30,124.58"/>
    </edge>
    <edge id=":103_c2" function="crossing" crossingEdges="410 -410">
        <lane id=":103_c2_0" index="0" allow="pedestrian" speed="1.00" length="6.40" width="4.00" shape="1093.00,133.75 1086.70,132.61"/>
    </edge>
    <edge id=":103_w0" function="walkingarea">
        <lane id=":103_w0_0" index="0" allow="pedestrian" speed="1.00" length="13.55" width="4.00" shape="1092.64,135.72 1094.61,136.08 1092.14,114.10 1090.41,115.12 1092.53,119.04 1093.74,122.16 1094.19,124.95 1094.05,127.83 1093.48,131.28"/>
    </edge>
    <edge id=":103_w1" function="walkingarea">
        <lane id=":103_w1_0" index="0" allow="pedestrian" speed="1.00" length="5.48" width="4.00" shape="1084.90,118.36 1083.17,119.38 1078.66,123.58 1079.48,125.40 1081.73,124.27 1083.44,123.11 1084.62,121.95 1085.25,120.77 1085.34,119.57"/>
    </edge>
    <edge id=":103_w2" function="walkingarea">
        <lane id=":103_w2_0" index="0" allow="pedestrian" speed="1.00" length="3.35" width="4.00" shape="1082.09,131.24 1082.91,133.07 1084.38,134.22 1086.34,134.58 1086.51,132.90 1086.33,131.67 1085.80,130.89 1084.91,130.56 1083.68,130.68"/>
    </edge>
    <edge id=":115_0" function="internal">
        <lane id=":115_0_0" index="0" disallow="pedestrian" speed="3.65" length="4.67" shape="770.88,220.43 769.58,219.79 769.08,219.05 769.37,218.21 770.46,217.25"/>
    </edge>
    <edge id=":115_w0" function="walkingarea">
        <lane id=":115_w0_0" index="0" allow="pedestrian" speed="1.00" length="8.40" width="2.00" shape="770.24,215.67 769.98,213.69 771.36,223.99 771.09,222.01"/>
    </edge>
    <edge id=":12_0" function="internal">
        <lane id=":12_0_0" index="0" disallow="pedestrian" speed="8.26" length="12.48" shape="535.85,568.41 533.54,564.85 531.22,562.49 528.90,561.33 526.57,561.38"/>
    </edge>
    <edge id=":12_1" function="internal">
        <lane id=":12_1_0" index="0" disallow="pedestrian" speed="7.79" length="18.55" shape="535.85,568.41 533.83,563.24 534.32,559.54 537.31,557.32 542.81,556.56"/>
    </edge>
    <edge id=":12_2" function="internal">
        <lane id=":12_2_0" index="0" disallow="pedestrian" speed="3.65" length="4.67" shape="535.85,568.41 535.97,566.97 536.47,566.24 537.37,566.20 538.65,566.86"/>
    </edge>
    <edge id=":12_3" function="internal">
        <lane id=":12_3_0" index="0" disallow="pedestrian" speed="6.18" length="6.91" shape="542.82,559.76 539.53,560.22 537.73,561.55 537.56,562.89"/>
    </edge>
    <edge id=":12_4" function="internal">
        <lane id=":12_4_0" index="0" disallow="pedestrian" speed="13.89" length="16.42" shape="542.82,559.76 537.94,559.72 534.58,559.76 531.28,560.20 526.57,561.38"/>
    </edge>
    <edge id=":12_5" function="internal">
        <lane id=":12_5_0" index="0" disallow="pedestrian" speed="3.65" length="2.34" shape="542.82,559.76 541.62,558.97 541.21,558.17"/>
    </edge>
    <edge id=":12_9" function="internal">
        <lane id=":12_9_0" index="0" disallow="pedestrian" speed="6.18" length="4.20" shape="537.56,562.89 537.44,563.76 538.65,566.86"/>
    </edge>
    <edge id=":12_10" function="internal">
        <lane id=":12_10_0" index="0" disallow="pedestrian" speed="3.65" length="2.34" shape="541.21,558.17 541.61,557.37 542.81,556.56"/>
    </edge>
    <edge id=":12_6" function="internal">
        <lane id=":12_6_0" index="0" disallow="pedestrian" speed="13.89" length="17.29" shape="525.71,558.30 530.66,557.05 534.14,556.57 537.68,556.52 542.81,556.56"/>
    </edge>
    <edge id=":12_7" function="internal">
        <lane id=":12_7_0" index="0" disallow="pedestrian" speed="9.49" length="5.10" shape="525.71,558.30 529.18,558.09 530.68,558.70"/>
    </edge>
    <edge id=":12_8" function="internal">
        <lane id=":12_8_0" index="0" disallow="pedestrian" speed="3.65" length="2.34" shape="525.71,558.30 527.08,558.75 527.68,559.41"/>
    </edge>
    <edge id=":12_11" function="internal">
        <lane id=":12_11_0" index="0" disallow="pedestrian" speed="9.49" length="11.66" shape="530.68,558.70 532.50,559.45 535.65,562.37 538.65,566.86"/>
    </edge>
    <edge id=":12_12" function="internal">
        <lane id=":12_12_0" index="0" disallow="pedestrian" speed="3.65" length="2.34" shape="527.68,559.41 527.51,560.29 526.57,561.38"/>
    </edge>
    <edge id=":12_c0" function="crossing" crossingEdges="-13 13">
        <lane id=":12_c0_0" index="0" allow="pedestrian" speed="1.00" length="6.40" width="4.00" shape="539.08,564.34 533.48,567.44"/>
    </edge>
    <edge id=":12_c1" function="crossing" crossingEdges="35 -35">
        <lane id=":12_c1_0" index="0" allow="pedestrian" speed="1.00" length="6.40" width="4.00" shape="540.81,554.97 540.82,561.37"/>
    </edge>
    <edge id=":12_c2" function="crossing" crossingEdges="39 -39">
        <lane id=":12_c2_0" index="0" allow="pedestrian" speed="1.00" length="6.40" width="4.00" shape="528.93,562.38 527.20,556.22"/>
    </edge>
    <edge id=":12_w0" function="walkingarea">
        <lane id=":12_w0_0" index="0" allow="pedestrian" speed="1.00" length="5.94" width="4.00" shape="527.00,562.92 527.54,564.85 532.70,570.15 534.45,569.19 533.13,567.00 531.84,565.28 530.59,564.01 529.36,563.19 528.17,562.83"/>
    </edge>
    <edge id=":12_w1" function="walkingarea">
        <lane id=":12_w1_0" index="0" allow="pedestrian" speed="1.00" length="3.36" width="4.00" shape="540.05,566.09 541.80,565.12 542.83,563.36 542.82,561.36 541.25,561.50 540.12,561.89 539.44,562.55 539.20,563.47 539.40,564.65"/>
    </edge>
    <edge id=":12_w2" function="walkingarea">
        <lane id=":12_w2_0" index="0" allow="pedestrian" speed="1.00" length="11.27" width="4.00" shape="542.81,554.96 542.80,552.96 524.74,554.83 525.28,556.76 528.91,555.80 531.64,555.24 533.92,554.98 536.23,554.91 539.04,554.94"/>
    </edge>
    <edge id=":129_0" function="internal">
        <lane id=":129_0_0" index="0" disallow="pedestrian" speed="13.89" length="15.78" shape="1071.09,245.27 1070.24,249.87 1069.54,253.00 1068.56,256.06 1066.90,260.43"/>
    </edge>
    <edge id=":129_1" function="internal">
        <lane id=":129_1_0" index="0" disallow="pedestrian" speed="7.86" length="6.27" shape="1071.09,245.27 1069.70,249.43 1068.40,250.78"/>
    </edge>
    <edge id=":129_2" function="internal">
        <lane id=":129_2_0" index="0" disallow="pedestrian" speed="3.65" length="2.34" shape="1071.09,245.27 1070.09,246.31 1069.23,246.56"/>
    </edge>
    <edge id=":129_9" function="internal">
        <lane id=":129_9_0" index="0" disallow="pedestrian" speed="7.86" length="9.31" shape="1068.40,250.78 1067.34,251.88 1064.03,252.62 1059.75,251.66"/>
    </edge>
    <edge id=":129_10" function="internal">
        <lane id=":129_10_0" index="0" disallow="pedestrian" speed="3.65" length="2.34" shape="1069.23,246.56 1068.51,246.02 1067.94,244.70"/>
    </edge>
    <edge id=":129_3" function="internal">
        <lane id=":129_3_0" index="0" disallow="pedestrian" speed="6.33" length="9.68" shape="1060.89,248.67 1063.55,249.27 1065.61,248.81 1067.08,247.28 1067.94,244.70"/>
    </edge>
    <edge id=":129_4" function="internal">
        <lane id=":129_4_0" index="0" disallow="pedestrian" speed="8.21" length="15.08" shape="1060.89,248.67 1064.72,250.73 1067.00,253.37 1067.73,256.61 1066.90,260.43"/>
    </edge>
    <edge id=":129_5" function="internal">
        <lane id=":129_5_0" index="0" disallow="pedestrian" speed="3.65" length="4.67" shape="1060.89,248.67 1061.72,249.84 1061.81,250.73 1061.15,251.34 1059.75,251.66"/>
    </edge>
    <edge id=":129_6" function="internal">
        <lane id=":129_6_0" index="0" disallow="pedestrian" speed="6.77" length="5.74" shape="1063.92,259.27 1064.43,256.83 1063.90,254.75 1063.16,253.93"/>
    </edge>
    <edge id=":129_7" function="internal">
        <lane id=":129_7_0" index="0" disallow="pedestrian" speed="13.89" length="15.16" shape="1063.92,259.27 1065.52,255.07 1066.45,252.13 1067.13,249.12 1067.94,244.70"/>
    </edge>
    <edge id=":129_8" function="internal">
        <lane id=":129_8_0" index="0" disallow="pedestrian" speed="3.65" length="2.34" shape="1063.92,259.27 1065.10,258.44 1065.99,258.36"/>
    </edge>
    <edge id=":129_11" function="internal">
        <lane id=":129_11_0" index="0" disallow="pedestrian" speed="6.77" length="4.15" shape="1063.16,253.93 1062.34,253.02 1059.75,251.66"/>
    </edge>
    <edge id=":129_12" function="internal">
        <lane id=":129_12_0" index="0" disallow="pedestrian" speed="3.65" length="2.34" shape="1065.99,258.36 1066.59,259.03 1066.90,260.43"/>
    </edge>
    <edge id=":129_c0" function="crossing" crossingEdges="-410 410">
        <lane id=":129_c0_0" index="0" allow="pedestrian" speed="1.00" length="6.40" width="4.00" shape="1066.01,246.38 1072.31,247.52"/>
    </edge>
    <edge id=":129_c1" function="crossing" crossingEdges="-130 130">
        <lane id=":129_c1_0" index="0" allow="pedestrian" speed="1.00" length="6.40" width="4.00" shape="1061.04,253.87 1063.33,247.89"/>
    </edge>
    <edge id=":129_c2" function="crossing" crossingEdges="-161 161">
        <lane id=":129_c2_0" index="0" allow="pedestrian" speed="1.00" length="6.40" width="4.00" shape="1069.12,259.15 1063.16,256.83"/>
    </edge>
    <edge id=":129_w0" function="walkingarea">
        <lane id=":129_w0_0" index="0" allow="pedestrian" speed="1.00" length="10.18" width="4.00" shape="1068.39,261.01 1070.26,261.74 1074.63,245.91 1072.66,245.55 1072.05,248.92 1071.57,251.41 1071.08,253.44 1070.48,255.44 1069.62,257.82"/>
    </edge>
    <edge id=":129_w1" function="walkingarea">
        <lane id=":129_w1_0" index="0" allow="pedestrian" speed="1.00" length="3.34" width="4.00" shape="1066.37,244.41 1064.40,244.05 1062.17,245.31 1061.46,247.17 1062.74,247.53 1063.84,247.57 1064.75,247.27 1065.47,246.64 1066.01,245.69"/>
    </edge>
    <edge id=":129_w2" function="walkingarea">
        <lane id=":129_w2_0" index="0" allow="pedestrian" speed="1.00" length="3.79" width="4.00" shape="1059.18,253.15 1058.46,255.02 1060.57,257.97 1062.43,258.69 1062.74,257.50 1062.72,256.41 1062.34,255.44 1061.63,254.57 1060.57,253.81"/>
    </edge>
    <edge id=":159_0" function="internal">
        <lane id=":159_0_0" index="0" disallow="pedestrian" speed="3.65" length="4.67" shape="983.08,329.61 982.83,331.03 982.25,331.72 981.36,331.67 980.15,330.88"/>
    </edge>
    <edge id=":159_w0" function="walkingarea">
        <lane id=":159_w0_0" index="0" allow="pedestrian" speed="1.00" length="8.40" width="2.00" shape="978.68,331.52 976.84,332.31 986.39,328.18 984.55,328.98"/>
    </edge>
    <edge id=":166_0" function="internal">
        <lane id=":166_0_0" index="0" disallow="pedestrian" speed="3.65" length="4.67" shape="831.40,1136.43 830.41,1137.49 829.56,1137.75 828.83,1137.22 828.24,1135.91"/>
    </edge>
    <edge id=":166_w0" function="walkingarea">
        <lane id=":166_w0_0" index="0" allow="pedestrian" speed="1.00" length="8.40" width="2.00" shape="826.66,1135.65 824.69,1135.32 834.95,1137.02 832.98,1136.70"/>
    </edge>
    <edge id=":172_0" function="internal">
        <lane id=":172_0_0" index="0" disallow="pedestrian" speed="3.65" length="4.67" shape="1012.32,811.13 1011.85,812.49 1011.17,813.08 1010.29,812.89 1009.22,811.92"/>
    </edge>
    <edge id=":172_w0" function="walkingarea">
        <lane id=":172_w0_0" index="0" allow="pedestrian" speed="1.00" length="8.40" width="2.00" shape="1007.67,812.32 1005.73,812.81 1015.81,810.24 1013.87,810.74"/>
    </edge>
    <edge id=":2_0" function="internal">
        <lane id=":2_0_0" index="0" disallow="pedestrian" speed="6.33" length="5.37" shape="982.24,706.02 981.20,703.50 979.64,702.09 979.10,702.00"/>
    </edge>
    <edge id=":2_1" function="internal">
        <lane id=":2_1_0" index="0" disallow="pedestrian" speed="13.89" length="13.91" shape="982.24,706.02 981.19,702.02 980.56,699.25 980.26,696.44 980.20,692.33"/>
    </edge>
    <edge id=":2_2" function="internal">
        <lane id=":2_2_0" index="0" disallow="pedestrian" speed="3.65" length="2.34" shape="982.24,706.02 982.72,704.66 983.40,704.07"/>
    </edge>
    <edge id=":2_9" function="internal">
        <lane id=":2_9_0" index="0" disallow="pedestrian" speed="6.33" length="4.29" shape="979.10,702.00 977.55,701.76 974.94,702.53"/>
    </edge>
    <edge id=":2_10" function="internal">
        <lane id=":2_10_0" index="0" disallow="pedestrian" speed="3.65" length="2.34" shape="983.40,704.07 984.27,704.26 985.34,705.23"/>
    </edge>
    <edge id=":2_3" function="internal">
        <lane id=":2_3_0" index="0" disallow="pedestrian" speed="13.89" length="13.09" shape="983.40,692.35 983.46,696.22 983.75,698.86 984.35,701.47 985.34,705.23"/>
    </edge>
    <edge id=":2_4" function="internal">
        <lane id=":2_4_0" index="0" disallow="pedestrian" speed="9.62" length="4.90" shape="983.40,692.35 982.86,695.36 981.92,696.94"/>
    </edge>
    <edge id=":2_5" function="internal">
        <lane id=":2_5_0" index="0" disallow="pedestrian" speed="3.65" length="2.34" shape="983.40,692.35 982.59,693.54 981.79,693.94"/>
    </edge>
    <edge id=":2_11" function="internal">
        <lane id=":2_11_0" index="0" disallow="pedestrian" speed="9.62" length="9.08" shape="981.92,696.94 981.26,698.06 978.63,700.45 974.94,702.53"/>
    </edge>
    <edge id=":2_12" function="internal">
        <lane id=":2_12_0" index="0" disallow="pedestrian" speed="3.65" length="2.34" shape="981.79,693.94 980.99,693.53 980.20,692.33"/>
    </edge>
    <edge id=":2_6" function="internal">
        <lane id=":2_6_0" index="0" disallow="pedestrian" speed="8.35" length="10.35" shape="973.61,699.62 976.48,698.04 978.54,696.29 979.78,694.39 980.20,692.33"/>
    </edge>
    <edge id=":2_7" function="internal">
        <lane id=":2_7_0" index="0" disallow="pedestrian" speed="7.86" length="15.53" shape="973.61,699.62 977.80,698.38 981.16,698.91 983.67,701.19 985.34,705.23"/>
    </edge>
    <edge id=":2_8" function="internal">
        <lane id=":2_8_0" index="0" disallow="pedestrian" speed="3.65" length="4.67" shape="973.61,699.62 975.04,699.84 975.73,700.40 975.70,701.30 974.94,702.53"/>
    </edge>
    <edge id=":2_c0" function="crossing" crossingEdges="173 -173">
        <lane id=":2_c0_0" index="0" allow="pedestrian" speed="1.00" length="6.40" width="4.00" shape="986.40,702.89 980.20,704.47"/>
    </edge>
    <edge id=":2_c1" function="crossing" crossingEdges="73 -73">
        <lane id=":2_c1_0" index="0" allow="pedestrian" speed="1.00" length="6.40" width="4.00" shape="978.59,694.31 984.99,694.36"/>
    </edge>
    <edge id=":2_c2" function="crossing" crossingEdges="-3 3">
        <lane id=":2_c2_0" index="0" allow="pedestrian" speed="1.00" length="6.40" width="4.00" shape="977.43,703.15 974.77,697.33"/>
    </edge>
    <edge id=":2_w0" function="walkingarea">
        <lane id=":2_w0_0" index="0" allow="pedestrian" speed="1.00" length="3.34" width="4.00" shape="975.61,703.98 976.44,705.80 978.75,706.91 980.69,706.41 980.25,705.16 979.64,704.25 978.88,703.67 977.95,703.44 976.86,703.54"/>
    </edge>
    <edge id=":2_w1" function="walkingarea">
        <lane id=":2_w1_0" index="0" allow="pedestrian" speed="1.00" length="7.77" width="4.00" shape="986.89,704.83 988.83,704.34 987.00,692.38 985.00,692.36 985.02,695.05 985.12,697.04 985.35,698.67 985.70,700.28 986.21,702.22"/>
    </edge>
    <edge id=":2_w2" function="walkingarea">
        <lane id=":2_w2_0" index="0" allow="pedestrian" speed="1.00" length="4.82" width="4.00" shape="978.60,692.31 976.60,692.30 972.11,696.34 972.95,698.16 974.67,697.28 976.08,696.37 977.18,695.41 977.96,694.42 978.44,693.38"/>
    </edge>
    <edge id=":282_0" function="internal">
        <lane id=":282_0_0" index="0" disallow="pedestrian" speed="3.65" length="4.67" shape="215.99,0.31 216.54,-1.02 217.25,-1.57 218.11,-1.33 219.13,-0.31"/>
    </edge>
    <edge id=":282_w0" function="walkingarea">
        <lane id=":282_w0_0" index="0" allow="pedestrian" speed="1.00" length="8.40" width="2.00" shape="220.70,-0.63 222.66,-1.02 212.47,1.02 214.43,0.63"/>
    </edge>
    <edge id=":284_0" function="internal">
        <lane id=":284_0_0" index="0" disallow="pedestrian" speed="3.65" length="4.67" shape="169.99,870.34 168.90,871.30 168.03,871.48 167.36,870.89 166.89,869.52"/>
    </edge>
    <edge id=":284_w0" function="walkingarea">
        <lane id=":284_w0_0" index="0" allow="pedestrian" speed="1.00" length="8.40" width="2.00" shape="165.35,869.11 163.41,868.60 173.47,871.26 171.53,870.75"/>
    </edge>
    <edge id=":286_0" function="internal">
        <lane id=":286_0_0" index="0" disallow="pedestrian" speed="3.65" length="4.67" shape="423.82,795.39 424.38,796.72 424.27,797.61 423.49,798.06 422.05,798.06"/>
    </edge>
    <edge id=":286_w0" function="walkingarea">
        <lane id=":286_w0_0" index="0" allow="pedestrian" speed="1.00" length="8.40" width="2.00" shape="421.16,799.39 420.06,801.06 425.81,792.39 424.70,794.06"/>
    </edge>
    <edge id=":30_0" function="internal">
        <lane id=":30_0_0" index="0" disallow="pedestrian" speed="13.89" length="18.16" shape="756.16,553.33 753.81,558.16 751.85,561.29 749.58,564.22 746.26,568.47"/>
    </edge>
    <edge id=":30_1" function="internal">
        <lane id=":30_1_0" index="0" disallow="pedestrian" speed="10.79" length="4.83" shape="756.16,553.33 754.16,555.88 752.76,556.64"/>
    </edge>
    <edge id=":30_2" function="internal">
        <lane id=":30_2_0" index="0" disallow="pedestrian" speed="3.65" length="2.34" shape="756.16,553.33 754.93,554.10 754.04,554.13"/>
    </edge>
    <edge id=":30_9" function="internal">
        <lane id=":30_9_0" index="0" disallow="pedestrian" speed="10.79" length="13.15" shape="752.76,556.64 750.81,557.70 746.10,558.80 740.02,559.19"/>
    </edge>
    <edge id=":30_10" function="internal">
        <lane id=":30_10_0" index="0" disallow="pedestrian" speed="3.65" length="2.34" shape="754.04,554.13 753.48,553.44 753.24,552.02"/>
    </edge>
    <edge id=":30_3" function="internal">