<?xml version="1.0" encoding="UTF-8"?>
<!-- generated on 2020-11-01 20:48:44.528931 by $Id$ v1_7_0+0731-f5102a459b
  options: -n data/rand.net.xml -o data/rand-ped.rou.xml <doubleminus>pedestrians -e 60
-->
<routes xmlns:xsi="http://www.w3.org/2001/XMLSchema-instance" xsi:noNamespaceSchemaLocation="http://sumo.dlr.de/xsd/routes_file.xsd">
    <person id="0" depart="0.00">
        <walk from="19" to="-13"/>
    </person>
    <person id="1" depart="1.00">
        <walk from="-33" to="-21"/>
    </person>
    <person id="2" depart="2.00">
        <walk from="3" to="19"/>
    </person>
    <person id="3" depart="3.00">
        <walk from="39" to="-146"/>
    </person>
    <person id="4" depart="4.00">
        <walk from="-40" to="-13"/>
    </person>
    <person id="5" depart="5.00">
        <walk from="-21" to="13"/>
    </person>
    <person id="6" depart="6.00">
        <walk from="-13" to="-21"/>
    </person>
    <person id="7" depart="7.00">
        <walk from="19" to="13"/>
    </person>
    <person id="8" depart="8.00">
        <walk from="-21" to="146"/>
    </person>
    <person id="9" depart="9.00">
        <walk from="33" to="-13"/>
    </person>
    <person id="10" depart="10.00">
        <walk from="33" to="21"/>
    </person>
    <person id="11" depart="11.00">
        <walk from="-37" to="-19"/>
    </person>
    <person id="12" depart="12.00">
        <walk from="5" to="-37"/>
    </person>
    <person id="13" depart="13.00">
        <walk from="-17" to="-17"/>
    </person>
    <person id="14" depart="14.00">
        <walk from="37" to="17"/>
    </person>
    <person id="15" depart="15.00">
        <walk from="33" to="3"/>
    </person>
    <person id="16" depart="16.00">
        <walk from="13" to="5"/>
    </person>
    <person id="17" depart="17.00">
        <walk from="-39" to="146"/>
    </person>
    <person id="18" depart="18.00">
        <walk from="37" to="17"/>
    </person>
    <person id="19" depart="19.00">
        <walk from="37" to="146"/>
    </person>
    <person id="20" depart="20.00">
        <walk from="21" to="-146"/>
    </person>
    <person id="21" depart="21.00">
        <walk from="-3" to="-33"/>
    </person>
    <person id="22" depart="22.00">
        <walk from="-146" to="-3"/>
    </person>
    <person id="23" depart="23.00">
        <walk from="-17" to="-33"/>
    </person>
    <person id="24" depart="24.00">
        <walk from="17" to="-39"/>
    </person>
    <person id="25" depart="25.00">
        <walk from="-39" to="-21"/>
    </person>
    <person id="26" depart="26.00">
        <walk from="-3" to="40"/>
    </person>
    <person id="27" depart="27.00">
        <walk from="19" to="17"/>
    </person>
    <person id="28" depart="28.00">
        <walk from="-19" to="3"/>
    </person>
    <person id="29" depart="29.00">
        <walk from="-19" to="-39"/>
    </person>
    <person id="30" depart="30.00">
        <walk from="5" to="19"/>
    </person>
    <person id="31" depart="31.00">
        <walk from="146" to="21"/>
    </person>
    <person id="32" depart="32.00">
        <walk from="37" to="33"/>
    </person>
    <person id="33" depart="33.00">
        <walk from="-3" to="-13"/>
    </person>
    <person id="34" depart="34.00">
        <walk from="-33" to="-3"/>
    </person>
    <person id="35" depart="35.00">
        <walk from="-21" to="40"/>
    </person>
    <person id="36" depart="36.00">
        <walk from="39" to="-33"/>
    </person>
    <person id="37" depart="37.00">
        <walk from="19" to="-39"/>
    </person>
    <person id="38" depart="38.00">
        <walk from="40" to="-5"/>
    </person>
    <person id="39" depart="39.00">
        <walk from="-3" to="-3"/>
    </person>
    <person id="40" depart="40.00">
        <walk from="146" to="-3"/>
    </person>
    <person id="41" depart="41.00">
        <walk from="146" to="39"/>
    </person>
    <person id="42" depart="42.00">
        <walk from="-39" to="-21"/>
    </person>
    <person id="43" depart="43.00">
        <walk from="5" to="13"/>
    </person>
    <person id="44" depart="44.00">
        <walk from="-17" to="-146"/>
    </person>
    <person id="45" depart="45.00">
        <walk from="-17" to="17"/>
    </person>
    <person id="46" depart="46.00">
        <walk from="33" to="-40"/>
    </person>
    <person id="47" depart="47.00">
        <walk from="-146" to="-39"/>
    </person>
    <person id="48" depart="48.00">
        <walk from="5" to="13"/>
    </person>
    <person id="49" depart="49.00">
        <walk from="5" to="37"/>
    </person>
    <person id="50" depart="50.00">
        <walk from="-13" to="21"/>
    </person>
    <person id="51" depart="51.00">
        <walk from="19" to="13"/>
    </person>
    <person id="52" depart="52.00">
        <walk from="-3" to="19"/>
    </person>
    <person id="53" depart="53.00">
        <walk from="-17" to="-40"/>
    </person>
    <person id="54" depart="54.00">
        <walk from="-40" to="40"/>
    </person>
    <person id="55" depart="55.00">
        <walk from="39" to="-3"/>
    </person>
    <person id="56" depart="56.00">
        <walk from="13" to="-19"/>
    </person>
    <person id="57" depart="57.00">
        <walk from="40" to="39"/>
    </person>
    <person id="58" depart="58.00">
        <walk from="-33" to="19"/>
    </person>
    <person id="59" depart="59.00">
        <walk from="17" to="-19"/>
    </person>
</routes>
