<?xml version="1.0" encoding="UTF-8"?>

<!-- generated on So 01 Nov 2020 20:58:15 by Eclipse SUMO netedit Version v1_7_0+0731-f5102a459b
<configuration xmlns:xsi="http://www.w3.org/2001/XMLSchema-instance" xsi:noNamespaceSchemaLocation="http://sumo.dlr.de/xsd/netconvertConfiguration.xsd">

    <input>
        <sumo-net-file value="data/rand.net.xml"/>
    </input>

    <output>
        <output-file value="/home/pascal/Programming/PolyHack20/coding/random_test/data/rand.net.xml"/>
    </output>

    <processing>
        <geometry.min-radius.fix.railways value="false"/>
        <geometry.max-grade.fix value="false"/>
        <offset.disable-normalization value="true"/>
        <lefthand value="false"/>
    </processing>

    <junctions>
        <no-internal-links value="false"/>
        <no-turnarounds value="true"/>
        <junctions.corner-detail value="5"/>
        <junctions.limit-turn-speed value="5.5"/>
        <rectangular-lane-cut value="false"/>
    </junctions>

    <pedestrian>
        <walkingareas value="true"/>
    </pedestrian>

    <report>
        <aggregate-warnings value="5"/>
    </report>

</configuration>
-->

<net version="1.6" junctionCornerDetail="5" walkingareas="true" limitTurnSpeed="5.50" xmlns:xsi="http://www.w3.org/2001/XMLSchema-instance" xsi:noNamespaceSchemaLocation="http://sumo.dlr.de/xsd/net_file.xsd">

    <location netOffset="300.59,195.09" convBoundary="0.00,0.00,434.49,411.97" origBoundary="-300.59,-195.09,133.90,216.87" projParameter="!"/>

    <edge id=":1_0" function="internal">
        <lane id=":1_0_0" index="0" disallow="pedestrian" speed="6.20" length="8.29" shape="303.93,207.76 302.08,204.38 300.10,203.17 298.18,204.04"/>
    </edge>
    <edge id=":1_1" function="internal">
        <lane id=":1_1_0" index="0" disallow="pedestrian" speed="10.58" length="15.27" shape="303.93,207.76 301.37,202.98 298.07,199.66 294.05,197.78 293.32,197.72"/>
    </edge>
    <edge id=":1_2" function="internal">
        <lane id=":1_2_0" index="0" disallow="pedestrian" speed="9.22" length="14.92" shape="303.93,207.76 302.07,201.62 301.90,196.77 303.33,193.41"/>
    </edge>
    <edge id=":1_3" function="internal">
        <lane id=":1_3_0" index="0" disallow="pedestrian" speed="3.65" length="4.67" shape="303.93,207.76 304.23,206.35 304.82,205.68 305.72,205.75 306.90,206.57"/>
    </edge>
    <edge id=":1_16" function="internal">
        <lane id=":1_16_0" index="0" disallow="pedestrian" speed="6.20" length="4.07" shape="298.18,204.04 297.98,204.13 295.73,207.26"/>
    </edge>
    <edge id=":1_17" function="internal">
        <lane id=":1_17_0" index="0" disallow="pedestrian" speed="10.58" length="4.04" shape="293.32,197.72 289.29,197.36"/>
    </edge>
    <edge id=":1_18" function="internal">
        <lane id=":1_18_0" index="0" disallow="pedestrian" speed="9.22" length="4.17" shape="303.33,193.41 303.42,193.20 306.64,190.91"/>
    </edge>
    <edge id=":1_4" function="internal">
        <lane id=":1_4_0" index="0" disallow="pedestrian" speed="7.98" length="10.03" shape="307.84,193.87 305.84,195.46 305.02,198.10 305.37,201.80 305.68,202.75"/>
    </edge>
    <edge id=":1_5" function="internal">
        <lane id=":1_5_0" index="0" disallow="pedestrian" speed="13.89" length="14.70" shape="307.84,193.87 303.03,196.29 300.28,198.87 298.28,202.31 297.56,203.70"/>
    </edge>
    <edge id=":1_6" function="internal">
        <lane id=":1_6_0" index="0" disallow="pedestrian" speed="13.89" length="19.03" shape="307.84,193.87 302.58,195.84 298.82,196.74 294.93,197.08 289.29,197.36"/>
    </edge>
    <edge id=":1_7" function="internal">
        <lane id=":1_7_0" index="0" disallow="pedestrian" speed="3.65" length="4.67" shape="307.84,193.87 306.43,193.58 305.75,192.99 305.82,192.10 306.64,190.91"/>
    </edge>
    <edge id=":1_19" function="internal">
        <lane id=":1_19_0" index="0" disallow="pedestrian" speed="7.98" length="4.01" shape="305.68,202.75 306.90,206.57"/>
    </edge>
    <edge id=":1_20" function="internal">
        <lane id=":1_20_0" index="0" disallow="pedestrian" speed="13.89" length="4.00" shape="297.56,203.70 295.73,207.26"/>
    </edge>
    <edge id=":1_8" function="internal">
        <lane id=":1_8_0" index="0" disallow="pedestrian" speed="13.89" length="17.98" shape="289.10,194.17 294.43,193.91 298.11,193.60 301.66,192.76 306.64,190.91"/>
    </edge>
    <edge id=":1_9" function="internal">
        <lane id=":1_9_0" index="0" disallow="pedestrian" speed="11.59" length="19.32" shape="289.10,194.17 294.92,194.66 299.83,196.90 303.82,200.86 304.99,203.03"/>
    </edge>
    <edge id=":1_10" function="internal">
        <lane id=":1_10_0" index="0" disallow="pedestrian" speed="8.02" length="16.33" shape="289.10,194.17 294.87,194.67 297.90,197.02 298.19,201.21 297.25,203.53"/>
    </edge>
    <edge id=":1_11" function="internal">
        <lane id=":1_11_0" index="0" disallow="pedestrian" speed="3.65" length="4.67" shape="289.10,194.17 290.35,194.89 290.79,195.67 290.44,196.49 289.29,197.36"/>
    </edge>
    <edge id=":1_21" function="internal">
        <lane id=":1_21_0" index="0" disallow="pedestrian" speed="11.59" length="4.03" shape="304.99,203.03 306.90,206.57"/>
    </edge>
    <edge id=":1_22" function="internal">
        <lane id=":1_22_0" index="0" disallow="pedestrian" speed="8.02" length="4.03" shape="297.25,203.53 295.73,207.26"/>
    </edge>
    <edge id=":1_12" function="internal">
        <lane id=":1_12_0" index="0" disallow="pedestrian" speed="6.43" length="8.29" shape="292.93,205.72 294.52,201.87 294.45,199.20 293.35,198.25"/>
    </edge>
    <edge id=":1_13" function="internal">
        <lane id=":1_13_0" index="0" disallow="pedestrian" speed="13.89" length="20.89" shape="292.93,205.72 295.80,200.23 298.11,196.44 301.26,193.58 306.64,190.91"/>
    </edge>
    <edge id=":1_14" function="internal">
        <lane id=":1_14_0" index="0" disallow="pedestrian" speed="7.90" length="17.03" shape="292.93,205.72 296.76,200.38 300.37,198.75 303.75,200.81 304.97,203.04"/>
    </edge>
    <edge id=":1_15" function="internal">
        <lane id=":1_15_0" index="0" disallow="pedestrian" speed="3.65" length="4.67" shape="292.93,205.72 294.20,205.05 295.10,205.08 295.61,205.82 295.73,207.26"/>
    </edge>
    <edge id=":1_23" function="internal">
        <lane id=":1_23_0" index="0" disallow="pedestrian" speed="6.43" length="4.28" shape="293.35,198.25 292.71,197.69 289.29,197.36"/>
    </edge>
    <edge id=":1_24" function="internal">
        <lane id=":1_24_0" index="0" disallow="pedestrian" speed="7.90" length="4.03" shape="304.97,203.04 306.90,206.57"/>
    </edge>
    <edge id=":1_c0" function="crossing" crossingEdges="17 -17">
        <lane id=":1_c0_0" index="0" allow="pedestrian" speed="1.00" length="6.40" width="4.00" shape="307.65,204.12 301.71,206.49"/>
    </edge>
    <edge id=":1_c1" function="crossing" crossingEdges="5 -5">
        <lane id=":1_c1_0" index="0" allow="pedestrian" speed="1.00" length="6.40" width="4.00" shape="304.18,190.18 306.59,196.11"/>
    </edge>
    <edge id=":1_c2" function="crossing" crossingEdges="3 -3">
        <lane id=":1_c2_0" index="0" allow="pedestrian" speed="1.00" length="6.40" width="4.00" shape="291.38,198.84 291.00,192.45"/>
    </edge>
    <edge id=":1_c3" function="crossing" crossingEdges="13 -13">
        <lane id=":1_c3_0" index="0" allow="pedestrian" speed="1.00" length="6.40" width="4.00" shape="298.10,206.27 292.49,203.19"/>
    </edge>
    <edge id=":1_w0" function="walkingarea">
        <lane id=":1_w0_0" index="0" allow="pedestrian" speed="1.00" length="3.34" width="4.00" shape="297.13,208.03 298.88,208.99 300.59,209.09 302.45,208.35 301.66,206.74 300.83,205.74 299.96,205.38 299.06,205.64 298.11,206.52"/>
    </edge>
    <edge id=":1_w1" function="walkingarea">
        <lane id=":1_w1_0" index="0" allow="pedestrian" speed="1.00" length="6.61" width="4.00" shape="308.39,205.98 310.25,205.23 309.19,197.21 308.44,195.36 307.41,196.07 306.79,197.20 306.58,198.76 306.78,200.74 307.38,203.15"/>
    </edge>
    <edge id=":1_w2" function="walkingarea">
        <lane id=":1_w2_0" index="0" allow="pedestrian" speed="1.00" length="10.88" width="4.00" shape="306.03,189.43 305.28,187.57 288.89,190.57 289.01,192.57 292.71,192.39 295.48,192.25 297.75,192.03 299.97,191.58 302.59,190.75"/>
    </edge>
    <edge id=":1_w3" function="walkingarea">
        <lane id=":1_w3_0" index="0" allow="pedestrian" speed="1.00" length="3.96" width="4.00" shape="289.38,198.96 289.50,200.95 289.77,203.98 291.52,204.95 292.43,203.02 292.83,201.47 292.72,200.29 292.12,199.48 291.00,199.03"/>
    </edge>
    <edge id=":12_0" function="internal">
        <lane id=":12_0_0" index="0" disallow="pedestrian" speed="6.61" length="9.46" shape="246.17,310.48 243.57,309.75 241.40,309.99 239.68,311.17 238.40,313.32"/>
    </edge>
    <edge id=":12_1" function="internal">
        <lane id=":12_1_0" index="0" disallow="pedestrian" speed="7.91" length="14.92" shape="246.17,310.48 242.62,308.32 240.74,305.60 240.53,302.29 241.99,298.41"/>
    </edge>
    <edge id=":12_2" function="internal">
        <lane id=":12_2_0" index="0" disallow="pedestrian" speed="3.65" length="4.67" shape="246.17,310.48 245.37,309.27 245.32,308.38 246.00,307.80 247.42,307.53"/>
    </edge>
    <edge id=":12_3" function="internal">
        <lane id=":12_3_0" index="0" disallow="pedestrian" speed="6.40" length="5.08" shape="244.79,299.95 243.88,302.39 244.01,304.47 244.24,304.79"/>
    </edge>
    <edge id=":12_4" function="internal">
        <lane id=":12_4_0" index="0" disallow="pedestrian" speed="13.89" length="14.84" shape="244.79,299.95 242.68,303.81 241.30,306.49 240.07,309.25 238.40,313.32"/>
    </edge>
    <edge id=":12_5" function="internal">
        <lane id=":12_5_0" index="0" disallow="pedestrian" speed="3.65" length="2.34" shape="244.79,299.95 243.52,300.62 242.62,300.58"/>
    </edge>
    <edge id=":12_9" function="internal">
        <lane id=":12_9_0" index="0" disallow="pedestrian" speed="6.40" length="4.29" shape="244.24,304.79 245.19,306.18 247.42,307.53"/>
    </edge>
    <edge id=":12_10" function="internal">
        <lane id=":12_10_0" index="0" disallow="pedestrian" speed="3.65" length="2.34" shape="242.62,300.58 242.11,299.84 241.99,298.41"/>
    </edge>
    <edge id=":12_6" function="internal">
        <lane id=":12_6_0" index="0" disallow="pedestrian" speed="13.89" length="15.21" shape="235.43,312.11 237.15,307.94 238.41,305.12 239.82,302.37 241.99,298.41"/>
    </edge>
    <edge id=":12_7" function="internal">
        <lane id=":12_7_0" index="0" disallow="pedestrian" speed="8.08" length="5.92" shape="235.43,312.11 237.44,308.73 239.07,307.58"/>
    </edge>
    <edge id=":12_8" function="internal">
        <lane id=":12_8_0" index="0" disallow="pedestrian" speed="3.65" length="2.34" shape="235.43,312.11 236.63,311.30 237.52,311.23"/>
    </edge>
    <edge id=":12_11" function="internal">
        <lane id=":12_11_0" index="0" disallow="pedestrian" speed="8.08" length="8.76" shape="239.07,307.58 240.11,306.84 243.43,306.44 247.42,307.53"/>
    </edge>
    <edge id=":12_12" function="internal">
        <lane id=":12_12_0" index="0" disallow="pedestrian" speed="3.65" length="2.34" shape="237.52,311.23 238.11,311.90 238.40,313.32"/>
    </edge>
    <edge id=":12_c0" function="crossing" crossingEdges="39 -39">
        <lane id=":12_c0_0" index="0" allow="pedestrian" speed="1.00" length="6.40" width="4.00" shape="246.20,305.28 243.70,311.17"/>
    </edge>
    <edge id=":12_c1" function="crossing" crossingEdges="-13 13">
        <lane id=":12_c1_0" index="0" allow="pedestrian" speed="1.00" length="6.40" width="4.00" shape="239.62,299.39 245.23,302.47"/>
    </edge>
    <edge id=":12_c2" function="crossing" crossingEdges="40 -40">
        <lane id=":12_c2_0" index="0" allow="pedestrian" speed="1.00" length="6.40" width="4.00" shape="240.63,312.07 234.70,309.65"/>
    </edge>
    <edge id=":12_w0" function="walkingarea">
        <lane id=":12_w0_0" index="0" allow="pedestrian" speed="1.00" length="3.52" width="4.00" shape="239.88,313.92 241.73,314.67 244.76,313.79 245.54,311.95 244.23,311.51 243.07,311.38 242.05,311.56 241.18,312.04 240.46,312.83"/>
    </edge>
    <edge id=":12_w1" function="walkingarea">
        <lane id=":12_w1_0" index="0" allow="pedestrian" speed="1.00" length="3.32" width="4.00" shape="248.04,306.06 248.83,304.22 247.95,301.68 246.20,300.72 245.68,301.89 245.50,302.95 245.64,303.90 246.12,304.73 246.92,305.45"/>
    </edge>
    <edge id=":12_w2" function="walkingarea">
        <lane id=":12_w2_0" index="0" allow="pedestrian" speed="1.00" length="9.71" width="4.00" shape="240.59,297.64 238.83,296.67 232.10,310.75 233.95,311.51 235.19,308.47 236.14,306.24 236.97,304.43 237.87,302.65 239.01,300.51"/>
    </edge>
    <edge id=":145_0" function="internal">
        <lane id=":145_0_0" index="0" disallow="pedestrian" speed="3.65" length="4.67" shape="25.19,0.96 25.11,-0.48 25.51,-1.28 26.38,-1.44 27.75,-0.96"/>
    </edge>
    <edge id=":145_w0" function="walkingarea">
        <lane id=":145_w0_0" index="0" allow="pedestrian" speed="1.00" length="8.40" width="2.00" shape="29.02,-1.93 30.62,-3.14 22.32,3.14 23.92,1.93"/>
    </edge>
    <edge id=":16_0" function="internal">
        <lane id=":16_0_0" index="0" disallow="pedestrian" speed="7.60" length="20.27" shape="363.36,347.72 365.08,353.97 364.15,357.51 360.59,358.36 354.39,356.51"/>
    </edge>
    <edge id=":16_1" function="internal">
        <lane id=":16_1_0" index="0" disallow="pedestrian" speed="5.71" length="2.33" shape="355.64,353.56 357.87,354.23"/>
    </edge>
    <edge id=":16_2" function="internal">
        <lane id=":16_2_0" index="0" disallow="pedestrian" speed="5.71" length="8.40" shape="357.87,354.23 358.92,354.54 360.81,354.09 361.30,352.22 360.39,348.91"/>
    </edge>
    <edge id=":16_c0" function="crossing" crossingEdges="-17 17">
        <lane id=":16_c0_0" index="0" allow="pedestrian" speed="1.00" length="6.40" width="4.00" shape="359.65,351.36 365.59,348.99"/>
    </edge>
    <edge id=":16_w0" function="walkingarea">
        <lane id=":16_w0_0" index="0" allow="pedestrian" speed="1.00" length="11.78" width="4.00" shape="353.76,357.98 352.98,359.82 366.70,346.39 364.85,347.13 366.62,352.64 366.95,356.67 365.83,359.22 363.25,360.29 359.23,359.87"/>
    </edge>
    <edge id=":16_w1" function="walkingarea">
        <lane id=":16_w1_0" index="0" allow="pedestrian" speed="1.00" length="2.36" width="4.00" shape="358.90,349.51 357.05,350.25 357.05,350.25 356.27,352.09 357.57,352.54 358.53,352.64 359.14,352.39 359.41,351.78 359.33,350.82"/>
    </edge>
    <edge id=":18_0" function="internal">
        <lane id=":18_0_0" index="0" disallow="pedestrian" speed="6.50" length="2.02" shape="101.18,102.41 101.12,101.82 101.02,101.42 100.82,101.05 100.47,100.57"/>
    </edge>
    <edge id=":18_1" function="internal">
        <lane id=":18_1_0" index="0" disallow="pedestrian" speed="8.72" length="3.81" shape="103.02,98.64 103.68,99.55 104.05,100.24 104.24,101.00 104.37,102.12"/>
    </edge>
    <edge id=":18_c0" function="crossing" crossingEdges="-19 19">
        <lane id=":18_c0_0" index="0" allow="pedestrian" speed="1.00" length="6.40" width="4.00" shape="105.78,99.98 99.41,100.57"/>
    </edge>
    <edge id=":18_w0" function="walkingarea">
        <lane id=":18_w0_0" index="0" allow="pedestrian" speed="1.00" length="1.55" width="4.00" shape="99.19,101.54 97.60,102.74 97.60,102.74 99.59,102.56 99.57,102.33 99.54,102.15 99.50,102.01 99.43,101.88 99.34,101.73"/>
    </edge>
    <edge id=":18_w1" function="walkingarea">
        <lane id=":18_w1_0" index="0" allow="pedestrian" speed="1.00" length="3.45" width="4.00" shape="105.96,101.97 107.95,101.78 105.90,96.47 104.30,97.68 104.89,98.48 105.30,99.10 105.57,99.65 105.75,100.25 105.86,100.98"/>
    </edge>
    <edge id=":2_0" function="internal">
        <lane id=":2_0_0" index="0" disallow="pedestrian" speed="6.21" length="8.48" shape="116.25,219.06 114.28,215.67 112.25,214.50 110.28,215.51"/>
    </edge>
    <edge id=":2_1" function="internal">
        <lane id=":2_1_0" index="0" disallow="pedestrian" speed="10.38" length="15.51" shape="116.25,219.06 113.50,214.30 110.04,211.11 105.87,209.49 105.03,209.48"/>
    </edge>
    <edge id=":2_2" function="internal">
        <lane id=":2_2_0" index="0" disallow="pedestrian" speed="13.89" length="20.77" shape="116.25,219.06 113.76,213.51 112.08,209.50 110.98,205.35 110.20,199.36"/>
    </edge>
    <edge id=":2_3" function="internal">
        <lane id=":2_3_0" index="0" disallow="pedestrian" speed="7.95" length="8.44" shape="116.25,219.06 115.47,214.70 116.08,210.74"/>
    </edge>
    <edge id=":2_4" function="internal">
        <lane id=":2_4_0" index="0" disallow="pedestrian" speed="3.65" length="2.34" shape="116.25,219.06 116.51,217.64 117.09,216.96"/>
    </edge>
    <edge id=":2_25" function="internal">
        <lane id=":2_25_0" index="0" disallow="pedestrian" speed="6.21" length="4.05" shape="110.28,215.51 110.17,215.57 108.04,218.87"/>
    </edge>
    <edge id=":2_26" function="internal">
        <lane id=":2_26_0" index="0" disallow="pedestrian" speed="10.38" length="4.05" shape="105.03,209.48 100.99,209.45"/>
    </edge>
    <edge id=":2_27" function="internal">
        <lane id=":2_27_0" index="0" disallow="pedestrian" speed="7.95" length="9.28" shape="116.08,210.74 116.22,209.84 118.35,205.85 121.76,204.06"/>
    </edge>
    <edge id=":2_28" function="internal">
        <lane id=":2_28_0" index="0" disallow="pedestrian" speed="3.65" length="2.34" shape="117.09,216.96 117.98,217.01 119.19,217.79"/>
    </edge>
    <edge id=":2_5" function="internal">
        <lane id=":2_5_0" index="0" disallow="pedestrian" speed="6.98" length="9.34" shape="121.94,207.25 119.10,208.07 117.69,210.10 117.72,213.34 117.93,213.98"/>
    </edge>
    <edge id=":2_6" function="internal">
        <lane id=":2_6_0" index="0" disallow="pedestrian" speed="11.65" length="14.98" shape="121.94,207.25 117.90,208.17 114.23,210.41 110.95,213.98 110.09,215.42"/>
    </edge>
    <edge id=":2_7" function="internal">
        <lane id=":2_7_0" index="0" disallow="pedestrian" speed="13.89" length="21.07" shape="121.94,207.25 100.99,209.45"/>
    </edge>
    <edge id=":2_8" function="internal">
        <lane id=":2_8_0" index="0" disallow="pedestrian" speed="8.56" length="6.68" shape="121.94,207.25 117.10,207.00 115.39,206.33"/>
    </edge>
    <edge id=":2_9" function="internal">
        <lane id=":2_9_0" index="0" disallow="pedestrian" speed="3.65" length="2.34" shape="121.94,207.25 120.70,206.52 120.25,205.75"/>
    </edge>
    <edge id=":2_29" function="internal">
        <lane id=":2_29_0" index="0" disallow="pedestrian" speed="6.98" length="4.02" shape="117.93,213.98 119.19,217.79"/>
    </edge>
    <edge id=":2_30" function="internal">
        <lane id=":2_30_0" index="0" disallow="pedestrian" speed="11.65" length="4.01" shape="110.09,215.42 108.04,218.87"/>
    </edge>
    <edge id=":2_31" function="internal">
        <lane id=":2_31_0" index="0" disallow="pedestrian" speed="8.56" length="9.27" shape="115.39,206.33 113.53,205.60 111.23,203.06 110.20,199.36"/>
    </edge>
    <edge id=":2_32" function="internal">
        <lane id=":2_32_0" index="0" disallow="pedestrian" speed="3.65" length="2.34" shape="120.25,205.75 120.60,204.93 121.76,204.06"/>
    </edge>
    <edge id=":2_10" function="internal">
        <lane id=":2_10_0" index="0" disallow="pedestrian" speed="7.18" length="6.88" shape="113.38,199.06 114.10,201.42 115.73,203.04 117.73,203.73"/>
    </edge>
    <edge id=":2_11" function="internal">
        <lane id=":2_11_0" index="0" disallow="pedestrian" speed="13.89" length="19.76" shape="113.38,199.06 114.13,204.84 115.17,208.71 116.77,212.44 119.19,217.79"/>
    </edge>
    <edge id=":2_12" function="internal">
        <lane id=":2_12_0" index="0" disallow="pedestrian" speed="13.89" length="8.20" shape="113.38,199.06 113.56,205.10 113.13,207.22"/>
    </edge>
    <edge id=":2_13" function="internal">
        <lane id=":2_13_0" index="0" disallow="pedestrian" speed="9.11" length="4.78" shape="113.38,199.06 112.90,202.91 112.37,203.64"/>
    </edge>
    <edge id=":2_14" function="internal">
        <lane id=":2_14_0" index="0" disallow="pedestrian" speed="3.65" length="2.34" shape="113.38,199.06 112.70,200.33 111.94,200.81"/>
    </edge>
    <edge id=":2_33" function="internal">
        <lane id=":2_33_0" index="0" disallow="pedestrian" speed="7.18" length="4.06" shape="117.73,203.73 118.28,203.92 121.76,204.06"/>
    </edge>
    <edge id=":2_34" function="internal">
        <lane id=":2_34_0" index="0" disallow="pedestrian" speed="13.89" length="12.78" shape="113.13,207.22 112.70,209.33 110.86,213.39 108.04,218.87"/>
    </edge>
    <edge id=":2_35" function="internal">
        <lane id=":2_35_0" index="0" disallow="pedestrian" speed="9.11" length="13.24" shape="112.37,203.64 110.68,205.92 106.71,208.10 100.99,209.45"/>
    </edge>
    <edge id=":2_36" function="internal">
        <lane id=":2_36_0" index="0" disallow="pedestrian" speed="3.65" length="2.34" shape="111.94,200.81 111.10,200.48 110.20,199.36"/>
    </edge>
    <edge id=":2_15" function="internal">
        <lane id=":2_15_0" index="0" disallow="pedestrian" speed="7.84" length="8.30" shape="100.54,206.28 104.96,205.31 108.04,203.83 108.28,203.56"/>
    </edge>
    <edge id=":2_16" function="internal">
        <lane id=":2_16_0" index="0" disallow="pedestrian" speed="13.89" length="21.33" shape="100.54,206.28 121.76,204.06"/>
    </edge>
    <edge id=":2_17" function="internal">
        <lane id=":2_17_0" index="0" disallow="pedestrian" speed="11.40" length="8.08" shape="100.54,206.28 106.54,206.31 108.49,207.05"/>
    </edge>
    <edge id=":2_18" function="internal">
        <lane id=":2_18_0" index="0" disallow="pedestrian" speed="8.02" length="7.50" shape="100.54,206.28 106.51,206.29 107.80,207.12"/>
    </edge>
    <edge id=":2_19" function="internal">
        <lane id=":2_19_0" index="0" disallow="pedestrian" speed="3.65" length="2.34" shape="100.54,206.28 101.84,206.90 102.35,207.64"/>
    </edge>
    <edge id=":2_37" function="internal">
        <lane id=":2_37_0" index="0" disallow="pedestrian" speed="7.84" length="4.80" shape="108.28,203.56 109.78,201.85 110.20,199.36"/>
    </edge>
    <edge id=":2_38" function="internal">
        <lane id=":2_38_0" index="0" disallow="pedestrian" speed="11.40" length="15.69" shape="108.49,207.05 111.64,208.24 115.86,212.07 119.19,217.79"/>
    </edge>
    <edge id=":2_39" function="internal">
        <lane id=":2_39_0" index="0" disallow="pedestrian" speed="8.02" length="13.22" shape="107.80,207.12 109.75,208.39 110.26,212.58 108.04,218.87"/>
    </edge>
    <edge id=":2_40" function="internal">
        <lane id=":2_40_0" index="0" disallow="pedestrian" speed="3.65" length="2.34" shape="102.35,207.64 102.06,208.49 100.99,209.45"/>
    </edge>
    <edge id=":2_20" function="internal">
        <lane id=":2_20_0" index="0" disallow="pedestrian" speed="6.42" length="8.48" shape="105.17,217.47 106.60,213.50 106.38,210.84 105.09,209.91"/>
    </edge>
    <edge id=":2_21" function="internal">
        <lane id=":2_21_0" index="0" disallow="pedestrian" speed="13.89" length="19.24" shape="105.17,217.47 107.81,212.39 109.55,208.76 110.36,204.95 110.20,199.36"/>
    </edge>
    <edge id=":2_22" function="internal">
        <lane id=":2_22_0" index="0" disallow="pedestrian" speed="12.61" length="18.33" shape="105.17,217.47 108.55,211.83 112.44,207.72 116.84,205.12 117.80,204.92"/>
    </edge>
    <edge id=":2_23" function="internal">
        <lane id=":2_23_0" index="0" disallow="pedestrian" speed="7.92" length="17.37" shape="105.17,217.47 108.80,211.83 112.35,210.01 115.82,211.99 117.16,214.31"/>
    </edge>
    <edge id=":2_24" function="internal">
        <lane id=":2_24_0" index="0" disallow="pedestrian" speed="3.65" length="4.67" shape="105.17,217.47 106.41,216.74 107.31,216.73 107.85,217.44 108.04,218.87"/>
    </edge>
    <edge id=":2_41" function="internal">
        <lane id=":2_41_0" index="0" disallow="pedestrian" speed="6.42" length="4.24" shape="105.09,209.91 104.51,209.49 100.99,209.45"/>
    </edge>
    <edge id=":2_42" function="internal">
        <lane id=":2_42_0" index="0" disallow="pedestrian" speed="12.61" length="4.05" shape="117.80,204.92 121.76,204.06"/>
    </edge>
    <edge id=":2_43" function="internal">
        <lane id=":2_43_0" index="0" disallow="pedestrian" speed="7.92" length="4.03" shape="117.16,214.31 119.19,217.79"/>
    </edge>
    <edge id=":2_c0" function="crossing" crossingEdges="37 -37">
        <lane id=":2_c0_0" index="0" allow="pedestrian" speed="1.00" length="6.40" width="4.00" shape="119.86,215.32 113.99,217.86"/>
    </edge>
    <edge id=":2_c1" function="crossing" crossingEdges="-3 3">
        <lane id=":2_c1_0" index="0" allow="pedestrian" speed="1.00" length="6.40" width="4.00" shape="119.66,202.58 120.04,208.97"/>
    </edge>
    <edge id=":2_c2" function="crossing" crossingEdges="19 -19">
        <lane id=":2_c2_0" index="0" allow="pedestrian" speed="1.00" length="6.40" width="4.00" shape="108.79,201.50 115.16,200.91"/>
    </edge>
    <edge id=":2_c3" function="crossing" crossingEdges="21 -21">
        <lane id=":2_c3_0" index="0" allow="pedestrian" speed="1.00" length="6.40" width="4.00" shape="103.19,210.75 102.30,204.41"/>
    </edge>
    <edge id=":2_c4" function="crossing" crossingEdges="33 -33">
        <lane id=":2_c4_0" index="0" allow="pedestrian" speed="1.00" length="6.40" width="4.00" shape="110.36,217.78 104.61,214.97"/>
    </edge>
    <edge id=":2_w0" function="walkingarea">
        <lane id=":2_w0_0" index="0" allow="pedestrian" speed="1.00" length="3.33" width="4.00" shape="109.48,219.57 111.28,220.45 112.95,220.49 114.78,219.70 113.94,218.07 113.07,217.09 112.20,216.75 111.31,217.05 110.40,217.99"/>
    </edge>
    <edge id=":2_w1" function="walkingarea">
        <lane id=":2_w1_0" index="0" allow="pedestrian" speed="1.00" length="5.27" width="4.00" shape="120.66,217.16 122.49,216.36 122.16,210.84 122.04,208.85 120.65,209.16 119.73,209.90 119.27,211.07 119.27,212.67 119.73,214.70"/>
    </edge>
    <edge id=":2_w2" function="walkingarea">
        <lane id=":2_w2_0" index="0" allow="pedestrian" speed="1.00" length="4.54" width="4.00" shape="121.66,202.46 121.54,200.46 116.97,198.73 114.98,198.92 115.26,200.10 115.88,201.05 116.83,201.76 118.11,202.23 119.72,202.46"/>
    </edge>
    <edge id=":2_w3" function="walkingarea">
        <lane id=":2_w3_0" index="0" allow="pedestrian" speed="1.00" length="6.02" width="4.00" shape="108.60,199.51 106.61,199.69 100.04,202.71 100.32,204.69 102.95,204.21 105.08,203.57 106.72,202.78 107.85,201.84 108.48,200.75"/>
    </edge>
    <edge id=":2_w4" function="walkingarea">
        <lane id=":2_w4_0" index="0" allow="pedestrian" speed="1.00" length="3.91" width="4.00" shape="101.21,211.03 101.49,213.01 101.93,215.89 103.73,216.77 104.55,214.79 104.87,213.22 104.70,212.06 104.03,211.31 102.87,210.96"/>
    </edge>
    <edge id=":20_0" function="internal">
        <lane id=":20_0_0" index="0" disallow="pedestrian" speed="3.65" length="4.67" shape="0.22,223.69 -1.08,223.07 -1.58,222.33 -1.30,221.49 -0.22,220.53"/>
    </edge>
    <edge id=":20_w0" function="walkingarea">
        <lane id=":20_w0_0" index="0" allow="pedestrian" speed="1.00" length="8.40" width="2.00" shape="-0.45,218.94 -0.73,216.96 0.73,227.26 0.45,225.28"/>
    </edge>
    <edge id=":32_0" function="internal">
        <lane id=":32_0_0" index="0" disallow="pedestrian" speed="3.65" length="4.67" shape="13.48,412.67 12.23,413.40 11.34,413.41 10.79,412.70 10.60,411.27"/>
    </edge>
    <edge id=":32_w0" function="walkingarea">
        <lane id=":32_w0_0" index="0" allow="pedestrian" speed="1.00" length="8.40" width="2.00" shape="9.16,410.57 7.37,409.69 16.71,414.25 14.92,413.37"/>
    </edge>
    <edge id=":36_0" function="internal">
        <lane id=":36_0_0" index="0" disallow="pedestrian" speed="7.58" length="20.14" shape="205.02,395.26 201.95,400.89 198.83,402.80 195.68,400.96 192.49,395.39"/>
    </edge>
    <edge id=":36_1" function="internal">
        <lane id=":36_1_0" index="0" disallow="pedestrian" speed="5.70" length="2.32" shape="195.42,394.12 196.58,396.14"/>
    </edge>
    <edge id=":36_2" function="internal">
        <lane id=":36_2_0" index="0" disallow="pedestrian" speed="5.70" length="8.34" shape="196.58,396.14 197.11,397.07 198.78,398.04 200.43,397.04 202.06,394.05"/>
    </edge>
    <edge id=":36_c0" function="crossing" crossingEdges="-40 40">
        <lane id=":36_c0_0" index="0" allow="pedestrian" speed="1.00" length="6.40" width="4.00" shape="199.82,395.30 205.75,397.72"/>
    </edge>
    <edge id=":36_w0" function="walkingarea">
        <lane id=":36_w0_0" index="0" allow="pedestrian" speed="1.00" length="11.76" width="4.00" shape="191.02,396.03 189.18,396.82 208.36,396.62 206.51,395.86 203.98,401.02 201.43,404.12 198.86,405.17 196.27,404.17 193.65,401.13"/>
    </edge>
    <edge id=":36_w1" function="walkingarea">
        <lane id=":36_w1_0" index="0" allow="pedestrian" speed="1.00" length="2.36" width="4.00" shape="200.58,393.45 198.73,392.69 198.73,392.69 196.89,393.49 197.52,394.70 198.14,395.43 198.76,395.67 199.37,395.41 199.98,394.68"/>
    </edge>
    <edge id=":4_0" function="internal">
        <lane id=":4_0_0" index="0" disallow="pedestrian" speed="3.65" length="4.67" shape="433.89,139.27 435.30,139.56 435.97,140.15 435.90,141.04 435.09,142.23"/>
    </edge>
    <edge id=":4_w0" function="walkingarea">
        <lane id=":4_w0_0" index="0" allow="pedestrian" speed="1.00" length="8.40" width="2.00" shape="435.69,143.72 436.45,145.57 432.53,135.93 433.29,137.78"/>
    </edge>

    <edge id="-13" from="12" to="1" priority="-1">