<?xml version="1.0" encoding="UTF-8"?>
<!-- generated on 2020-11-01 20:48:44.458441 by $Id$ v1_7_0+0731-f5102a459b
  options: -n data/rand.net.xml -o data/rand.rou.xml <doubleminus>period 1.5 -e 60
-->
<routes xmlns:xsi="http://www.w3.org/2001/XMLSchema-instance" xsi:noNamespaceSchemaLocation="http://sumo.dlr.de/xsd/routes_file.xsd">
    <trip id="0" depart="0.00" from="13" to="-13"/>
    <trip id="1" depart="1.50" from="-21" to="-37"/>
    <trip id="2" depart="3.00" from="19" to="3"/>
    <trip id="3" depart="4.50" from="39" to="-17"/>
    <trip id="4" depart="6.00" from="-37" to="-13"/>
    <trip id="5" depart="7.50" from="-19" to="17"/>
    <trip id="6" depart="9.00" from="-13" to="-3"/>
    <trip id="7" depart="10.50" from="13" to="17"/>
    <trip id="8" depart="12.00" from="-19" to="19"/>
    <trip id="9" depart="13.50" from="3" to="-13"/>
    <trip id="10" depart="15.00" from="3" to="3"/>
    <trip id="11" depart="16.50" from="-33" to="-19"/>
    <trip id="12" depart="18.00" from="40" to="-40"/>
    <trip id="13" depart="19.50" from="-146" to="-17"/>
    <trip id="14" depart="21.00" from="37" to="19"/>
    <trip id="15" depart="22.50" from="3" to="33"/>
    <trip id="16" depart="24.00" from="-40" to="5"/>
    <trip id="17" depart="25.50" from="-33" to="17"/>
    <trip id="18" depart="27.00" from="3" to="21"/>
    <trip id="19" depart="28.50" from="37" to="19"/>
    <trip id="20" depart="30.00" from="17" to="-13"/>
    <trip id="21" depart="31.50" from="-21" to="-39"/>
    <trip id="22" depart="33.00" from="-146" to="-37"/>
    <trip id="23" depart="34.50" from="-146" to="-39"/>
    <trip id="24" depart="36.00" from="13" to="-40"/>
    <trip id="25" depart="37.50" from="-33" to="-3"/>
    <trip id="26" depart="39.00" from="-21" to="40"/>
    <trip id="27" depart="40.50" from="13" to="19"/>
    <trip id="28" depart="42.00" from="-19" to="33"/>
    <trip id="29" depart="43.50" from="-17" to="-40"/>
    <trip id="30" depart="45.00" from="40" to="21"/>
    <trip id="31" depart="46.50" from="-5" to="3"/>
    <trip id="32" depart="48.00" from="37" to="33"/>
    <trip id="33" depart="49.50" from="-21" to="-13"/>
    <trip id="34" depart="51.00" from="-3" to="-37"/>
    <trip id="35" depart="52.50" from="-19" to="40"/>
    <trip id="36" depart="54.00" from="37" to="-39"/>
    <trip id="37" depart="55.50" from="13" to="13"/>
    <trip id="38" depart="57.00" from="39" to="146"/>
    <trip id="39" depart="58.50" from="-21" to="-37"/>
</routes>
