<?xml version="1.0" encoding="UTF-8"?>

<!-- generated on Sat Nov  7 21:44:02 2020 by Eclipse SUMO netgenerate Version v1_7_0+0731-f5102a459b
<configuration xmlns:xsi="http://www.w3.org/2001/XMLSchema-instance" xsi:noNamespaceSchemaLocation="http://sumo.dlr.de/xsd/netgenerateConfiguration.xsd">

    <random_network>
        <rand value="true"/>
        <rand.iterations value="30"/>
    </random_network>

    <output>
        <output-file value="rand.net.xml"/>
    </output>

    <pedestrian>
        <sidewalks.guess value="true"/>
        <crossings.guess value="true"/>
    </pedestrian>

    <random_number>
        <seed value="30"/>
    </random_number>

</configuration>
-->

<net version="1.6" junctionCornerDetail="5" walkingareas="true" limitTurnSpeed="5.50" xmlns:xsi="http://www.w3.org/2001/XMLSchema-instance" xsi:noNamespaceSchemaLocation="http://sumo.dlr.de/xsd/net_file.xsd">

    <location netOffset="690.29,407.53" convBoundary="0.00,0.00,860.76,1242.49" origBoundary="-690.29,-407.53,170.47,834.96" projParameter="!"/>

    <edge id=":1_0" function="internal">
        <lane id=":1_0_0" index="0" disallow="pedestrian" speed="8.80" length="14.32" shape="701.58,413.73 696.72,412.12 692.86,411.55 689.99,412.00 688.11,413.48"/>
    </edge>
    <edge id=":1_1" function="internal">
        <lane id=":1_1_0" index="0" disallow="pedestrian" speed="13.89" length="20.56" shape="701.58,413.73 695.85,411.60 691.88,409.84 688.68,407.18 685.25,402.32"/>
    </edge>
    <edge id=":1_2" function="internal">
        <lane id=":1_2_0" index="0" disallow="pedestrian" speed="7.88" length="20.80" shape="701.58,413.73 695.90,410.63 693.84,407.28 695.40,403.66 700.57,399.78"/>
    </edge>
    <edge id=":1_3" function="internal">
        <lane id=":1_3_0" index="0" disallow="pedestrian" speed="3.65" length="4.67" shape="701.58,413.73 700.76,412.54 700.68,411.65 701.35,411.06 702.76,410.76"/>
    </edge>
    <edge id=":1_4" function="internal">
        <lane id=":1_4_0" index="0" disallow="pedestrian" speed="6.19" length="8.14" shape="702.16,402.55 699.13,404.83 698.21,406.96 699.27,408.69"/>
    </edge>
    <edge id=":1_5" function="internal">
        <lane id=":1_5_0" index="0" disallow="pedestrian" speed="13.89" length="18.08" shape="702.16,402.55 697.43,405.10 694.15,406.94 691.36,409.31 688.11,413.48"/>
    </edge>
    <edge id=":1_6" function="internal">
        <lane id=":1_6_0" index="0" disallow="pedestrian" speed="9.23" length="9.91" shape="702.16,402.55 696.44,405.22 692.90,405.86"/>
    </edge>
    <edge id=":1_7" function="internal">
        <lane id=":1_7_0" index="0" disallow="pedestrian" speed="3.65" length="2.34" shape="702.16,402.55 700.73,402.46 699.98,401.96"/>
    </edge>
    <edge id=":1_16" function="internal">
        <lane id=":1_16_0" index="0" disallow="pedestrian" speed="6.19" length="4.09" shape="699.27,408.69 699.42,408.94 702.76,410.76"/>
    </edge>
    <edge id=":1_17" function="internal">
        <lane id=":1_17_0" index="0" disallow="pedestrian" speed="9.23" length="8.96" shape="692.90,405.86 691.72,406.07 687.99,405.10 685.25,402.32"/>
    </edge>
    <edge id=":1_18" function="internal">
        <lane id=":1_18_0" index="0" disallow="pedestrian" speed="3.65" length="2.34" shape="699.98,401.96 699.93,401.07 700.57,399.78"/>
    </edge>
    <edge id=":1_8" function="internal">
        <lane id=":1_8_0" index="0" disallow="pedestrian" speed="7.99" length="13.89" shape="687.98,400.66 689.84,402.37 692.56,402.79 696.14,401.93 700.57,399.78"/>
    </edge>
    <edge id=":1_9" function="internal">
        <lane id=":1_9_0" index="0" disallow="pedestrian" speed="13.89" length="18.48" shape="687.98,400.66 691.08,405.00 693.99,407.34 697.59,408.86 702.76,410.76"/>
    </edge>
    <edge id=":1_10" function="internal">
        <lane id=":1_10_0" index="0" disallow="pedestrian" speed="9.40" length="13.62" shape="687.98,400.66 689.57,404.06 690.12,407.33 689.63,410.47 688.11,413.48"/>
    </edge>
    <edge id=":1_11" function="internal">
        <lane id=":1_11_0" index="0" disallow="pedestrian" speed="3.65" length="4.67" shape="687.98,400.66 687.92,402.10 687.44,402.86 686.55,402.93 685.25,402.32"/>
    </edge>
    <edge id=":1_12" function="internal">
        <lane id=":1_12_0" index="0" disallow="pedestrian" speed="8.09" length="5.81" shape="685.48,411.65 686.55,409.50 686.87,407.23 686.67,406.14"/>
    </edge>
    <edge id=":1_13" function="internal">
        <lane id=":1_13_0" index="0" disallow="pedestrian" speed="13.89" length="19.50" shape="685.48,411.65 688.98,407.14 691.96,404.55 695.47,402.54 700.57,399.78"/>
    </edge>
    <edge id=":1_14" function="internal">
        <lane id=":1_14_0" index="0" disallow="pedestrian" speed="9.96" length="5.05" shape="685.48,411.65 688.14,409.32 689.61,408.96"/>
    </edge>
    <edge id=":1_15" function="internal">
        <lane id=":1_15_0" index="0" disallow="pedestrian" speed="3.65" length="2.34" shape="685.48,411.65 686.82,411.12 687.71,411.25"/>
    </edge>
    <edge id=":1_19" function="internal">
        <lane id=":1_19_0" index="0" disallow="pedestrian" speed="8.09" length="4.10" shape="686.67,406.14 686.44,404.84 685.25,402.32"/>
    </edge>
    <edge id=":1_20" function="internal">
        <lane id=":1_20_0" index="0" disallow="pedestrian" speed="9.96" length="13.53" shape="689.61,408.96 691.91,408.39 696.78,408.87 702.76,410.76"/>
    </edge>
    <edge id=":1_21" function="internal">
        <lane id=":1_21_0" index="0" disallow="pedestrian" speed="3.65" length="2.34" shape="687.71,411.25 688.14,412.03 688.11,413.48"/>
    </edge>
    <edge id=":1_c0" function="crossing" crossingEdges="27 -27">
        <lane id=":1_c0_0" index="0" allow="pedestrian" speed="1.00" length="6.40" width="4.00" shape="701.49,408.53 699.13,414.48"/>
    </edge>
    <edge id=":1_c1" function="crossing" crossingEdges="3 -3">
        <lane id=":1_c1_0" index="0" allow="pedestrian" speed="1.00" length="6.40" width="4.00" shape="698.04,399.39 701.23,404.94"/>
    </edge>
    <edge id=":1_c2" function="crossing" crossingEdges="5 -5">
        <lane id=":1_c2_0" index="0" allow="pedestrian" speed="1.00" length="6.40" width="4.00" shape="684.92,404.86 690.39,401.54"/>
    </edge>
    <edge id=":1_c3" function="crossing" crossingEdges="9 -9">
        <lane id=":1_c3_0" index="0" allow="pedestrian" speed="1.00" length="6.40" width="4.00" shape="690.56,412.75 685.31,409.09"/>
    </edge>
    <edge id=":1_w0" function="walkingarea">
        <lane id=":1_w0_0" index="0" allow="pedestrian" speed="1.00" length="7.20" width="4.00" shape="689.42,414.39 691.06,415.53 700.25,417.08 700.99,415.22 698.02,414.15 695.47,413.45 693.34,413.12 691.62,413.17 690.31,413.59"/>
    </edge>
    <edge id=":1_w1" function="walkingarea">
        <lane id=":1_w1_0" index="0" allow="pedestrian" speed="1.00" length="3.34" width="4.00" shape="703.35,409.27 704.08,407.41 703.96,405.67 702.96,403.94 701.49,404.94 700.64,405.89 700.39,406.80 700.76,407.67 701.75,408.49"/>
    </edge>
    <edge id=":1_w2" function="walkingarea">
        <lane id=":1_w2_0" index="0" allow="pedestrian" speed="1.00" length="6.54" width="4.00" shape="699.77,398.39 698.78,396.66 691.06,398.79 689.35,399.83 690.21,400.73 691.42,401.17 692.98,401.16 694.89,400.69 697.16,399.77"/>
    </edge>
    <edge id=":1_w3" function="walkingarea">
        <lane id=":1_w3_0" index="0" allow="pedestrian" speed="1.00" length="4.44" width="4.00" shape="683.88,403.15 682.17,404.19 682.52,409.59 684.17,410.74 684.80,409.60 685.16,408.42 685.25,407.18 685.06,405.89 684.61,404.55"/>
    </edge>
    <edge id=":135_0" function="internal">
        <lane id=":135_0_0" index="0" disallow="pedestrian" speed="3.65" length="4.67" shape="494.37,834.18 494.71,835.58 494.47,836.44 493.63,836.76 492.21,836.54"/>
    </edge>
    <edge id=":135_w0" function="walkingarea">
        <lane id=":135_w0_0" index="0" allow="pedestrian" speed="1.00" length="8.40" width="2.00" shape="491.12,837.71 489.77,839.18 496.82,831.54 495.46,833.01"/>
    </edge>
    <edge id=":2_0" function="internal">
        <lane id=":2_0_0" index="0" disallow="pedestrian" speed="7.11" length="12.83" shape="857.55,303.69 859.60,306.69 860.01,309.44 858.79,311.94 855.93,314.18"/>
    </edge>
    <edge id=":2_1" function="internal">
        <lane id=":2_1_0" index="0" disallow="pedestrian" speed="5.37" length="6.79" shape="854.33,311.40 855.85,310.22 856.50,308.90 856.28,307.44 855.19,305.85"/>
    </edge>
    <edge id=":2_c0" function="crossing" crossingEdges="486 -486">
        <lane id=":2_c0_0" index="0" allow="pedestrian" speed="1.00" length="6.40" width="4.00" shape="855.36,308.41 860.08,304.08"/>
    </edge>
    <edge id=":2_w0" function="walkingarea">
        <lane id=":2_w0_0" index="0" allow="pedestrian" speed="1.00" length="9.86" width="4.00" shape="856.72,315.57 857.72,317.30 860.20,301.26 858.73,302.61 860.64,305.12 861.66,307.48 861.77,309.71 860.99,311.80 859.31,313.75"/>
    </edge>
    <edge id=":2_w1" function="walkingarea">
        <lane id=":2_w1_0" index="0" allow="pedestrian" speed="1.00" length="2.08" width="4.00" shape="854.01,306.93 852.54,308.28 852.54,308.28 853.53,310.02 854.15,309.59 854.55,309.12 854.74,308.62 854.71,308.09 854.47,307.53"/>
    </edge>
    <edge id=":243_0" function="internal">
        <lane id=":243_0_0" index="0" disallow="pedestrian" speed="3.65" length="4.67" shape="736.69,-0.90 738.02,-1.44 738.91,-1.32 739.35,-0.54 739.33,0.90"/>
    </edge>
    <edge id=":243_w0" function="walkingarea">
        <lane id=":243_w0_0" index="0" allow="pedestrian" speed="1.00" length="8.40" width="2.00" shape="740.65,1.81 742.30,2.93 733.71,-2.93 735.37,-1.81"/>
    </edge>
    <edge id=":255_0" function="internal">
        <lane id=":255_0_0" index="0" disallow="pedestrian" speed="7.22" length="1.63" shape="767.79,210.51 767.46,210.16 767.21,209.95 766.92,209.79 766.47,209.60"/>
    </edge>
    <edge id=":255_1" function="internal">
        <lane id=":255_1_0" index="0" disallow="pedestrian" speed="9.73" length="3.08" shape="767.66,206.63 768.50,206.98 769.05,207.28 769.53,207.69 770.15,208.35"/>
    </edge>
    <edge id=":255_c0" function="crossing" crossingEdges="-486 486">
        <lane id=":255_c0_0" index="0" allow="pedestrian" speed="1.00" length="6.40" width="4.00" shape="769.98,205.80 765.26,210.12"/>
    </edge>
    <edge id=":255_w0" function="walkingarea">
        <lane id=":255_w0_0" index="0" allow="pedestrian" speed="1.00" length="1.53" width="4.00" shape="765.88,211.09 765.14,212.95 765.14,212.95 766.61,211.60 766.48,211.46 766.38,211.36 766.29,211.28 766.19,211.22 766.06,211.16"/>
    </edge>
    <edge id=":255_w1" function="walkingarea">
        <lane id=":255_w1_0" index="0" allow="pedestrian" speed="1.00" length="2.84" width="4.00" shape="771.33,207.27 772.81,205.92 768.99,203.29 768.25,205.14 768.99,205.45 769.54,205.70 769.97,205.95 770.36,206.26 770.79,206.68"/>
    </edge>
    <edge id=":26_0" function="internal">
        <lane id=":26_0_0" index="0" disallow="pedestrian" speed="7.10" length="12.11" shape="811.08,453.69 814.02,455.38 815.57,457.55 815.72,460.21 814.49,463.37"/>
    </edge>
    <edge id=":26_1" function="internal">
        <lane id=":26_1_0" index="0" disallow="pedestrian" speed="5.36" length="6.41" shape="811.71,461.79 812.36,460.12 812.28,458.71 811.46,457.56 809.90,456.67"/>
    </edge>
    <edge id=":26_c0" function="crossing" crossingEdges="-27 27">
        <lane id=":26_c0_0" index="0" allow="pedestrian" speed="1.00" length="6.40" width="4.00" shape="811.17,458.89 813.53,452.94"/>
    </edge>
    <edge id=":26_w0" function="walkingarea">
        <lane id=":26_w0_0" index="0" allow="pedestrian" speed="1.00" length="9.52" width="4.00" shape="815.88,464.16 817.62,465.14 812.41,450.35 811.67,452.21 814.28,453.52 816.13,455.11 817.21,456.97 817.53,459.10 817.09,461.49"/>
    </edge>
    <edge id=":26_w1" function="walkingarea">
        <lane id=":26_w1_0" index="0" allow="pedestrian" speed="1.00" length="2.04" width="4.00" shape="809.31,458.15 808.58,460.01 808.58,460.01 810.32,461.00 810.60,460.37 810.71,459.80 810.63,459.29 810.37,458.85 809.93,458.47"/>
    </edge>
    <edge id=":263_0" function="internal">
        <lane id=":263_0_0" index="0" disallow="pedestrian" speed="3.65" length="4.67" shape="520.31,1113.35 519.18,1114.24 518.29,1114.37 517.66,1113.74 517.27,1112.35"/>
    </edge>
    <edge id=":263_w0" function="walkingarea">
        <lane id=":263_w0_0" index="0" allow="pedestrian" speed="1.00" length="8.40" width="2.00" shape="515.75,1111.85 513.85,1111.23 523.73,1114.47 521.83,1113.85"/>
    </edge>
    <edge id=":268_0" function="internal">
        <lane id=":268_0_0" index="0" disallow="pedestrian" speed="3.65" length="4.67" shape="720.59,967.09 721.50,968.21 721.65,969.09 721.03,969.74 719.65,970.15"/>
    </edge>
    <edge id=":268_w0" function="walkingarea">
        <lane id=":268_w0_0" index="0" allow="pedestrian" speed="1.00" length="8.40" width="2.00" shape="719.17,971.68 718.58,973.59 721.65,963.65 721.06,965.57"/>
    </edge>
    <edge id=":32_0" function="internal">
        <lane id=":32_0_0" index="0" disallow="pedestrian" speed="13.89" length="17.94" shape="669.62,747.24 662.32,763.63"/>
    </edge>
    <edge id=":32_1" function="internal">
        <lane id=":32_1_0" index="0" disallow="pedestrian" speed="7.92" length="8.23" shape="669.62,747.24 666.27,753.04 664.94,753.81"/>
    </edge>
    <edge id=":32_2" function="internal">
        <lane id=":32_2_0" index="0" disallow="pedestrian" speed="3.65" length="2.34" shape="669.62,747.24 668.41,748.03 667.52,748.08"/>
    </edge>
    <edge id=":32_9" function="internal">
        <lane id=":32_9_0" index="0" disallow="pedestrian" speed="7.92" length="13.14" shape="664.94,753.81 662.82,755.04 659.26,753.23 655.60,747.63"/>
    </edge>
    <edge id=":32_10" function="internal">
        <lane id=":32_10_0" index="0" disallow="pedestrian" speed="3.65" length="2.34" shape="667.52,748.08 666.94,747.40 666.67,745.98"/>
    </edge>
    <edge id=":32_3" function="internal">
        <lane id=":32_3_0" index="0" disallow="pedestrian" speed="6.21" length="12.51" shape="658.46,746.21 660.61,749.49 662.69,750.55 664.71,749.38 666.67,745.98"/>
    </edge>
    <edge id=":32_4" function="internal">
        <lane id=":32_4_0" index="0" disallow="pedestrian" speed="12.54" length="18.29" shape="658.46,746.21 661.05,752.03 662.55,756.87 662.97,760.74 662.32,763.63"/>
    </edge>
    <edge id=":32_5" function="internal">
        <lane id=":32_5_0" index="0" disallow="pedestrian" speed="3.65" length="4.67" shape="658.46,746.21 658.28,747.64 657.74,748.35 656.85,748.35 655.60,747.63"/>
    </edge>
    <edge id=":32_6" function="internal">
        <lane id=":32_6_0" index="0" disallow="pedestrian" speed="11.53" length="11.39" shape="659.45,762.21 659.84,760.02 659.33,756.87 657.91,752.74 657.25,751.27"/>
    </edge>
    <edge id=":32_7" function="internal">
        <lane id=":32_7_0" index="0" disallow="pedestrian" speed="13.89" length="17.76" shape="659.45,762.21 666.67,745.98"/>
    </edge>
    <edge id=":32_8" function="internal">
        <lane id=":32_8_0" index="0" disallow="pedestrian" speed="3.65" length="2.34" shape="659.45,762.21 660.70,761.49 661.60,761.48"/>
    </edge>
    <edge id=":32_11" function="internal">
        <lane id=":32_11_0" index="0" disallow="pedestrian" speed="11.53" length="4.00" shape="657.25,751.27 655.60,747.63"/>
    </edge>
    <edge id=":32_12" function="internal">
        <lane id=":32_12_0" index="0" disallow="pedestrian" speed="3.65" length="2.34" shape="661.60,761.48 662.14,762.20 662.32,763.63"/>
    </edge>
    <edge id=":32_c0" function="crossing" crossingEdges="74 -74">
        <lane id=":32_c0_0" index="0" allow="pedestrian" speed="1.00" length="6.40" width="4.00" shape="664.42,747.19 670.30,749.71"/>
    </edge>
    <edge id=":32_c1" function="crossing" crossingEdges="-33 33">
        <lane id=":32_c1_0" index="0" allow="pedestrian" speed="1.00" length="6.40" width="4.00" shape="655.05,750.13 660.79,747.29"/>
    </edge>
    <edge id=":32_c2" function="crossing" crossingEdges="64 -64">
        <lane id=":32_c2_0" index="0" allow="pedestrian" speed="1.00" length="6.40" width="4.00" shape="664.64,762.55 658.91,759.70"/>
    </edge>
    <edge id=":32_w0" function="walkingarea">
        <lane id=":32_w0_0" index="0" allow="pedestrian" speed="1.00" length="11.46" width="4.00" shape="665.53,760.76 663.75,764.34 665.54,765.23 672.93,748.66 671.09,747.87 669.51,751.55"/>
    </edge>
    <edge id=":32_w1" function="walkingarea">
        <lane id=":32_w1_0" index="0" allow="pedestrian" speed="1.00" length="3.33" width="4.00" shape="665.20,745.35 663.36,744.57 661.69,744.61 659.90,745.50 660.83,747.07 661.74,748.01 662.63,748.30 663.51,747.96 664.36,746.97"/>
    </edge>
    <edge id=":32_w2" function="walkingarea">
        <lane id=":32_w2_0" index="0" allow="pedestrian" speed="1.00" length="8.51" width="4.00" shape="654.16,748.34 652.37,749.23 656.23,760.61 658.02,761.50 658.28,760.39 658.18,758.84 657.72,756.87 656.90,754.46 655.71,751.61"/>
    </edge>
    <edge id=":373_0" function="internal">
        <lane id=":373_0_0" index="0" disallow="pedestrian" speed="6.31" length="9.79" shape="159.98,758.55 158.52,756.20 156.72,755.07 154.60,755.15 152.15,756.44"/>
    </edge>
    <edge id=":373_1" function="internal">
        <lane id=":373_1_0" index="0" disallow="pedestrian" speed="13.89" length="18.39" shape="159.98,758.55 157.80,753.55 156.41,750.08 155.17,746.55 153.48,741.36"/>
    </edge>
    <edge id=":373_2" function="internal">
        <lane id=":373_2_0" index="0" disallow="pedestrian" speed="10.07" length="17.90" shape="159.98,758.55 158.80,754.25 159.15,750.15 161.02,746.26 164.43,742.58"/>
    </edge>
    <edge id=":373_3" function="internal">
        <lane id=":373_3_0" index="0" disallow="pedestrian" speed="3.65" length="4.67" shape="159.98,758.55 160.23,757.13 160.80,756.44 161.70,756.48 162.91,757.26"/>
    </edge>
    <edge id=":373_4" function="internal">
        <lane id=":373_4_0" index="0" disallow="pedestrian" speed="8.89" length="9.64" shape="166.51,745.01 163.84,747.88 162.35,750.87 162.11,753.24"/>
    </edge>
    <edge id=":373_5" function="internal">
        <lane id=":373_5_0" index="0" disallow="pedestrian" speed="13.89" length="18.36" shape="166.51,745.01 152.15,756.44"/>
    </edge>
    <edge id=":373_6" function="internal">
        <lane id=":373_6_0" index="0" disallow="pedestrian" speed="7.79" length="7.04" shape="166.51,745.01 162.23,747.76 160.28,747.93"/>
    </edge>
    <edge id=":373_7" function="internal">
        <lane id=":373_7_0" index="0" disallow="pedestrian" speed="3.65" length="2.34" shape="166.51,745.01 165.08,745.18 164.25,744.84"/>
    </edge>
    <edge id=":373_16" function="internal">
        <lane id=":373_16_0" index="0" disallow="pedestrian" speed="8.89" length="4.14" shape="162.11,753.24 162.04,754.00 162.91,757.26"/>
    </edge>
    <edge id=":373_17" function="internal">
        <lane id=":373_17_0" index="0" disallow="pedestrian" speed="7.79" length="10.36" shape="160.28,747.93 158.63,748.07 155.71,745.93 153.48,741.36"/>
    </edge>
    <edge id=":373_18" function="internal">
        <lane id=":373_18_0" index="0" disallow="pedestrian" speed="3.65" length="2.34" shape="164.25,744.84 164.04,743.97 164.43,742.58"/>
    </edge>
    <edge id=":373_8" function="internal">
        <lane id=":373_8_0" index="0" disallow="pedestrian" speed="6.20" length="10.56" shape="156.52,740.37 157.87,743.14 159.64,744.44 161.83,744.25 164.43,742.58"/>
    </edge>
    <edge id=":373_9" function="internal">
        <lane id=":373_9_0" index="0" disallow="pedestrian" speed="13.89" length="18.07" shape="156.52,740.37 158.19,745.47 159.40,748.93 160.77,752.34 162.91,757.26"/>
    </edge>
    <edge id=":373_10" function="internal">
        <lane id=":373_10_0" index="0" disallow="pedestrian" speed="10.18" length="17.94" shape="156.52,740.37 157.52,745.28 157.13,749.59 155.33,753.32 152.15,756.44"/>
    </edge>
    <edge id=":373_11" function="internal">
        <lane id=":373_11_0" index="0" disallow="pedestrian" speed="3.65" length="4.67" shape="156.52,740.37 156.13,741.76 155.50,742.38 154.61,742.25 153.48,741.36"/>
    </edge>
    <edge id=":373_12" function="internal">
        <lane id=":373_12_0" index="0" disallow="pedestrian" speed="9.01" length="9.95" shape="150.26,753.85 152.67,751.46 154.01,748.59 154.28,745.22"/>
    </edge>
    <edge id=":373_13" function="internal">
        <lane id=":373_13_0" index="0" disallow="pedestrian" speed="13.89" length="18.10" shape="150.26,753.85 164.43,742.58"/>
    </edge>
    <edge id=":373_14" function="internal">
        <lane id=":373_14_0" index="0" disallow="pedestrian" speed="7.84" length="5.77" shape="150.26,753.85 154.22,751.76 155.52,751.71"/>
    </edge>
    <edge id=":373_15" function="internal">
        <lane id=":373_15_0" index="0" disallow="pedestrian" speed="3.65" length="2.34" shape="150.26,753.85 151.71,753.79 152.50,754.20"/>
    </edge>
    <edge id=":373_19" function="internal">
        <lane id=":373_19_0" index="0" disallow="pedestrian" speed="9.01" length="3.94" shape="154.28,745.22 153.48,741.36"/>
    </edge>
    <edge id=":373_20" function="internal">
        <lane id=":373_20_0" index="0" disallow="pedestrian" speed="7.84" length="10.03" shape="155.52,751.71 157.64,751.63 160.54,753.47 162.91,757.26"/>
    </edge>
    <edge id=":373_21" function="internal">
        <lane id=":373_21_0" index="0" disallow="pedestrian" speed="3.65" length="2.34" shape="152.50,754.20 152.65,755.09 152.15,756.44"/>
    </edge>
    <edge id=":373_c0" function="crossing" crossingEdges="-374 374">
        <lane id=":373_c0_0" index="0" allow="pedestrian" speed="1.00" length="6.40" width="4.00" shape="163.57,754.78 157.71,757.37"/>
    </edge>
    <edge id=":373_c1" function="crossing" crossingEdges="-382 382">
        <lane id=":373_c1_0" index="0" allow="pedestrian" speed="1.00" length="6.40" width="4.00" shape="161.87,742.67 166.03,747.53"/>
    </edge>
    <edge id=":373_c2" function="crossing" crossingEdges="504 -504">
        <lane id=":373_c2_0" index="0" allow="pedestrian" speed="1.00" length="6.40" width="4.00" shape="152.58,743.76 158.66,741.77"/>
    </edge>
    <edge id=":373_c3" function="crossing" crossingEdges="516 -516">
        <lane id=":373_c3_0" index="0" allow="pedestrian" speed="1.00" length="6.40" width="4.00" shape="154.71,756.56 150.94,751.38"/>
    </edge>
    <edge id=":373_w0" function="walkingarea">
        <lane id=":373_w0_0" index="0" allow="pedestrian" speed="1.00" length="3.34" width="4.00" shape="153.09,757.73 154.27,759.35 156.69,760.00 158.52,759.20 157.87,758.02 157.11,757.21 156.26,756.78 155.30,756.72 154.25,757.04"/>
    </edge>
    <edge id=":373_w1" function="walkingarea">
        <lane id=":373_w1_0" index="0" allow="pedestrian" speed="1.00" length="6.60" width="4.00" shape="164.38,756.61 166.21,755.80 168.86,747.74 167.55,746.22 165.90,747.85 164.70,749.53 163.94,751.24 163.64,752.99 163.78,754.78"/>
    </edge>
    <edge id=":373_w2" function="walkingarea">
        <lane id=":373_w2_0" index="0" allow="pedestrian" speed="1.00" length="3.36" width="4.00" shape="163.38,741.37 162.08,739.85 159.94,739.25 158.04,739.87 158.62,741.23 159.32,742.15 160.15,742.62 161.10,742.65 162.18,742.23"/>
    </edge>
    <edge id=":373_w3" function="walkingarea">
        <lane id=":373_w3_0" index="0" allow="pedestrian" speed="1.00" length="6.70" width="4.00" shape="151.96,741.85 150.06,742.47 148.15,750.94 149.32,752.56 150.77,751.26 151.82,749.77 152.46,748.08 152.69,746.20 152.53,744.12"/>
    </edge>
    <edge id=":379_0" function="internal">
        <lane id=":379_0_0" index="0" disallow="pedestrian" speed="7.47" length="14.14" shape="207.04,1079.74 204.45,1078.13 201.72,1078.33 198.84,1080.33 195.83,1084.13"/>
    </edge>
    <edge id=":379_1" function="internal">
        <lane id=":379_1_0" index="0" disallow="pedestrian" speed="13.04" length="19.36" shape="207.04,1079.74 203.70,1077.28 199.54,1075.73 194.58,1075.11 188.82,1075.40"/>
    </edge>
    <edge id=":379_2" function="internal">
        <lane id=":379_2_0" index="0" disallow="pedestrian" speed="13.89" length="20.27" shape="207.04,1079.74 203.06,1075.39 201.00,1071.76 200.23,1067.59 200.10,1061.63"/>
    </edge>
    <edge id=":379_3" function="internal">
        <lane id=":379_3_0" index="0" disallow="pedestrian" speed="8.05" length="17.69" shape="207.04,1079.74 204.26,1075.90 203.88,1072.30 205.91,1068.96 210.36,1065.86"/>
    </edge>
    <edge id=":379_4" function="internal">
        <lane id=":379_4_0" index="0" disallow="pedestrian" speed="3.65" length="4.67" shape="207.04,1079.74 206.75,1078.33 207.03,1077.48 207.88,1077.19 209.30,1077.47"/>
    </edge>
    <edge id=":379_5" function="internal">
        <lane id=":379_5_0" index="0" disallow="pedestrian" speed="6.55" length="6.86" shape="211.85,1068.69 208.90,1070.71 207.49,1072.85 207.53,1073.58"/>
    </edge>
    <edge id=":379_6" function="internal">
        <lane id=":379_6_0" index="0" disallow="pedestrian" speed="13.89" length="18.61" shape="211.85,1068.69 206.38,1071.89 202.58,1075.02 199.40,1078.85 198.07,1080.82"/>
    </edge>
    <edge id=":379_7" function="internal">
        <lane id=":379_7_0" index="0" disallow="pedestrian" speed="13.89" length="24.17" shape="211.85,1068.69 205.91,1071.53 200.74,1073.34 195.36,1074.50 188.82,1075.40"/>
    </edge>
    <edge id=":379_8" function="internal">
        <lane id=":379_8_0" index="0" disallow="pedestrian" speed="7.79" length="7.39" shape="211.85,1068.69 206.72,1070.56 204.80,1070.27"/>
    </edge>
    <edge id=":379_9" function="internal">
        <lane id=":379_9_0" index="0" disallow="pedestrian" speed="3.65" length="2.34" shape="211.85,1068.69 210.41,1068.54 209.69,1068.02"/>
    </edge>
    <edge id=":379_25" function="internal">
        <lane id=":379_25_0" index="0" disallow="pedestrian" speed="6.55" length="4.43" shape="207.53,1073.58 207.62,1075.10 209.30,1077.47"/>
    </edge>
    <edge id=":379_26" function="internal">
        <lane id=":379_26_0" index="0" disallow="pedestrian" speed="13.89" length="4.00" shape="198.07,1080.82 195.83,1084.13"/>
    </edge>
    <edge id=":379_27" function="internal">
        <lane id=":379_27_0" index="0" disallow="pedestrian" speed="7.79" length="10.92" shape="204.80,1070.27 203.06,1070.01 200.85,1067.03 200.10,1061.63"/>
    </edge>
    <edge id=":379_28" function="internal">
        <lane id=":379_28_0" index="0" disallow="pedestrian" speed="3.65" length="2.34" shape="209.69,1068.02 209.67,1067.13 210.36,1065.86"/>
    </edge>
    <edge id=":379_10" function="internal">
        <lane id=":379_10_0" index="0" disallow="pedestrian" speed="6.18" length="11.00" shape="203.30,1061.62 203.75,1064.86 205.08,1066.65 207.28,1066.98 210.36,1065.86"/>
    </edge>
    <edge id=":379_11" function="internal">
        <lane id=":379_11_0" index="0" disallow="pedestrian" speed="13.81" length="17.72" shape="203.30,1061.62 203.41,1066.83 204.06,1070.48 205.83,1073.67 209.30,1077.47"/>
    </edge>
    <edge id=":379_12" function="internal">
        <lane id=":379_12_0" index="0" disallow="pedestrian" speed="13.89" length="24.18" shape="203.30,1061.62 202.92,1068.18 201.63,1073.49 199.32,1078.49 195.83,1084.13"/>
    </edge>
    <edge id=":379_13" function="internal">
        <lane id=":379_13_0" index="0" disallow="pedestrian" speed="10.34" length="22.20" shape="203.30,1061.62 202.41,1066.98 199.70,1071.07 195.17,1073.87 188.82,1075.40"/>
    </edge>
    <edge id=":379_14" function="internal">
        <lane id=":379_14_0" index="0" disallow="pedestrian" speed="3.65" length="4.67" shape="203.30,1061.62 202.51,1062.82 201.71,1063.22 200.91,1062.82 200.10,1061.63"/>
    </edge>
    <edge id=":379_15" function="internal">
        <lane id=":379_15_0" index="0" disallow="pedestrian" speed="9.23" length="13.32" shape="188.43,1072.23 193.55,1071.03 197.20,1068.86 199.38,1065.73"/>
    </edge>
    <edge id=":379_16" function="internal">
        <lane id=":379_16_0" index="0" disallow="pedestrian" speed="13.89" length="23.02" shape="188.43,1072.23 194.80,1071.37 199.80,1070.33 204.59,1068.65 210.36,1065.86"/>
    </edge>
    <edge id=":379_17" function="internal">
        <lane id=":379_17_0" index="0" disallow="pedestrian" speed="13.89" length="9.48" shape="188.43,1072.23 194.94,1071.92 197.88,1072.32"/>
    </edge>
    <edge id=":379_18" function="internal">
        <lane id=":379_18_0" index="0" disallow="pedestrian" speed="7.91" length="7.70" shape="188.43,1072.23 195.09,1072.21 195.99,1072.72"/>
    </edge>
    <edge id=":379_19" function="internal">
        <lane id=":379_19_0" index="0" disallow="pedestrian" speed="3.65" length="2.34" shape="188.43,1072.23 189.72,1072.87 190.21,1073.62"/>
    </edge>
    <edge id=":379_29" function="internal">
        <lane id=":379_29_0" index="0" disallow="pedestrian" speed="9.23" length="4.16" shape="199.38,1065.73 200.10,1061.63"/>
    </edge>
    <edge id=":379_30" function="internal">
        <lane id=":379_30_0" index="0" disallow="pedestrian" speed="13.89" length="12.77" shape="197.88,1072.32 200.59,1072.69 205.37,1074.54 209.30,1077.47"/>
    </edge>
    <edge id=":379_31" function="internal">
        <lane id=":379_31_0" index="0" disallow="pedestrian" speed="7.91" length="13.60" shape="195.99,1072.72 198.55,1074.19 198.79,1078.16 195.83,1084.13"/>
    </edge>
    <edge id=":379_32" function="internal">
        <lane id=":379_32_0" index="0" disallow="pedestrian" speed="3.65" length="2.34" shape="190.21,1073.62 189.91,1074.46 188.82,1075.40"/>
    </edge>
    <edge id=":379_20" function="internal">
        <lane id=":379_20_0" index="0" disallow="pedestrian" speed="6.21" length="12.48" shape="193.16,1082.38 194.89,1078.88 194.75,1076.55 192.72,1075.39 188.82,1075.40"/>
    </edge>